  62
        -98.93554409
 C          1.4417397695        1.4272345994       -0.2122265211
 C          2.8017115396        1.5362491896        0.1771579486
 C          3.6656805495        0.3831513994       -0.1154432308
 C          3.1261608893       -0.7063771710       -0.6910677900
 C          3.8482747692       -1.9955296612       -0.9629452293
 C          4.0021246094       -2.7987574004        0.3444114812
 C          5.4479658595       -2.9755906001        0.8087844611
 H          5.4191166396       -3.3627107394        1.8296238714
 H          5.9325169593       -3.7295029906        0.1847065815
 C          6.3174363395       -1.7149166802        0.7790361301
 H          7.2090964296       -1.9292036898        1.3722481401
 H          6.6605643094       -1.5286854509       -0.2398678001
 C          5.6635896897       -0.4360567098        1.3181015794
 H          6.4179376498        0.1203087405        1.8784240389
 H          4.8636480998       -0.6777860993        2.0183107997
 C          5.1226766695        0.5139680795        0.2331872588
 H          5.7254089294        0.4117268789       -0.6738212312
 H          5.2342353696        1.5433959097        0.5867880581
 H          3.5624429693       -3.7891358304        0.2185140320
 H          3.4279986896       -2.2956451098        1.1251690210
 H          3.2555715990       -2.5549252017       -1.6866708188
 H          4.8223900691       -1.7856664316       -1.3993573996
 O          1.8152872292       -0.7860087312       -1.0285134997
 C          0.9373410793        0.2711706690       -0.8133184703
 O         -0.2200395507        0.0413279988       -1.2036523999
 O          3.2736566497        2.5571744599        0.7461904778
 C          0.5287171096        2.5962055897        0.1211421183
 C         -0.6841121303        2.0720754202        0.8435915088
 C         -0.5900872501        1.7413430511        2.1915730590
 C         -1.6617034100        1.1737823416        2.8559722496
 C         -2.8414226401        0.9058506512        2.1838688600
 C         -2.9384107003        1.2197952303        0.8346432698
 C         -1.8738658404        1.8216157498        0.1784370892
 H         -1.9579362606        2.0547483891       -0.8713521509
 N         -4.1230885305        0.9188306599        0.1314616102
 S         -4.6406403205       -0.6752597401        0.1416667414
 O         -5.6334579107       -0.7533617307       -0.9069560584
 O         -5.0982094703       -1.0074166692        1.4686992317
 C         -3.2220271907       -1.6680556304       -0.2804799482
 C         -2.3797176205       -2.1077037998        0.7196902919
 C         -1.2539789306       -2.8353694201        0.3716812022
 C         -0.9924195908       -3.1101977810       -0.9605273977
 C         -1.8510801210       -2.6651549916       -1.9522003778
 C         -2.9741415709       -1.9312873713       -1.6118159881
 H         -3.6657541610       -1.5647664918       -2.3537353482
 H         -1.6403035412       -2.8751465923       -2.9887172977
 H         -0.1081059409       -3.6670564212       -1.2283344575
 H         -0.5786688305       -3.1767894096        1.1405357923
 H         -2.6159454603       -1.8772941091        1.7458210218
 H         -4.0998884906        1.2467390893       -0.8242289500
 H         -3.6796528300        0.4415477615        2.6780299905
 H         -1.5768677998        0.9290905323        3.9041386098
 H          0.3402484800        1.9243936214        2.7115587988
 H          1.1144510098        3.2082870901        0.8253859678
 C          0.1822908894        3.5000636289       -1.0520700523
 C          1.2257844993        3.8521765882       -2.0687877127
 C          0.0510683492        3.0100419580       -2.4617412119
 H         -0.7105901309        3.4564726076       -3.0850141721
 H          0.2084120191        1.9603732178       -2.6521038212
 H          1.2772534593        4.8690977479       -2.4274945434
 H          2.1887339993        3.3715125182       -1.9752399725
 H         -0.4907035105        4.2989713991       -0.7543205927
