  62
        -98.94116011
 C         -2.0583211806       -0.3895486903        0.0510441102
 C         -3.1490374106       -1.1039588802        0.6126429103
 C         -4.3601336705       -0.3257976501        0.8927230104
 C         -4.3642608505        1.0008150399        0.6722364104
 C         -5.5135754204        1.9378402499        0.9270191305
 C         -6.5415332005        1.9877016000       -0.2118791695
 C         -7.4311001006        0.7504665300       -0.3419045494
 H         -7.8832362505        0.5264090701        0.6247712406
 H         -8.2403402506        1.0090812901       -1.0277221793
 C         -6.7106682107       -0.4951045000       -0.8769663694
 H         -5.7713202207       -0.1970595801       -1.3487870295
 H         -7.3215676908       -0.9649052200       -1.6511401594
 C         -6.4186247907       -1.5609910100        0.1794203505
 H         -5.8754571807       -2.3796049401       -0.2999372795
 H         -7.3586438007       -1.9619054100        0.5647984106
 C         -5.5781346705       -1.0623730501        1.3621964605
 H         -6.1807384705       -0.4268877300        2.0107332805
 H         -5.2418767905       -1.9300751101        1.9350104204
 H         -6.0125910906        2.1569369600       -1.1528111795
 H         -7.1838042804        2.8530658900       -0.0325483494
 H         -5.0817253703        2.9340737799        1.0451621504
 H         -6.0119388303        1.6629101500        1.8571469105
 O         -3.2781421005        1.6622411898        0.1958947703
 C         -2.1069752705        0.9919039697       -0.1453376798
 O         -1.2211963205        1.7412732197       -0.5957291999
 O         -3.1101922507       -2.3361373802        0.8702804403
 C         -0.8050784107       -1.1850105703       -0.2724156699
 C          0.4053412994       -0.5118910404        0.3202013600
 C          0.6244779495       -0.6011916904        1.6917934800
 C          1.7043241596        0.0314315995        2.2781450999
 C          2.5874759596        0.7686716595        1.5093484398
 C          2.3776268595        0.8632058595        0.1399829098
 C          1.3013612594        0.2123314695       -0.4498327301
 H          1.1367461193        0.3112524396       -1.5112977001
 N          3.2619630495        1.6176156794       -0.6445789302
 S          4.9024264495        1.5204679593       -0.3589029004
 O          5.2525911696        2.3187626093        0.7898377496
 O          5.5257850294        1.9018061193       -1.6068445804
 C          5.2132241794       -0.2023032007       -0.0121791704
 C          5.6912208095       -0.5847352107        1.2243166696
 C          5.8985324794       -1.9318283707        1.4758951796
 C          5.6228678893       -2.8683037707        0.4920837596
 C          5.1458889692       -2.4681106607       -0.7470166404
 C          4.9374579593       -1.1230806307       -1.0038269604
 H          4.5756230492       -0.7769507906       -1.9586667703
 H          4.9345249891       -3.1986737007       -1.5113424904
 H          5.7815752992       -3.9165367607        0.6902628896
 H          6.2715119595       -2.2455613707        2.4375140795
 H          5.8932635296        0.1759683593        1.9606845396
 H          3.0401047194        1.6352024795       -1.6280092702
 H          3.4202420996        1.2901271894        1.9524458698
 H          1.8582273597       -0.0430068005        3.3439675399
 H         -0.0726020305       -1.1653789704        2.2960090800
 H         -0.9531087007       -2.1415482003        0.2548192201
 C         -0.6388792708       -1.5287086403       -1.7453592699
 C         -1.8345983009       -1.8473529303       -2.5910559898
 C         -1.0400272608       -0.6052203103       -2.8549453399
 H         -0.4219462709       -0.5738185503       -3.7409188099
 H         -1.4677067908        0.3491779097       -2.5908724999
 H         -1.7683635310       -2.6630652503       -3.2950416998
 H         -2.8080334809       -1.7422964102       -2.1342289298
 H          0.2467781391       -2.1333779404       -1.9165521900
