  62
        -98.94379629
 C         -1.6310509366       -1.4251704027        0.3954873135
 C         -1.7727149274       -0.1851726838        1.0740701982
 C         -3.0519527562        0.5105241846        0.9024634875
 C         -4.0239535641       -0.0579079786        0.1669240666
 C         -5.4034588370        0.4976037140       -0.0629181986
 C         -5.4877102447        1.5172768447       -1.2068377677
 C         -4.8580571304        2.8788420551       -0.9106269046
 H         -5.1771678267        3.5584741568       -1.7033256357
 H         -5.2560728286        3.2649483257        0.0282968300
 C         -3.3240034037        2.8657548454       -0.8574981524
 H         -2.9510602856        1.9547460584       -1.3313244981
 H         -2.9333843210        3.7075422189       -1.4332523683
 C         -2.7342319800        2.9663999476        0.5493180163
 H         -1.6477989433        2.8932491134        0.4650609565
 H         -2.9806502082        3.9385897944        0.9819095195
 C         -3.2057892918        1.8702339616        1.5135173276
 H         -4.2417475641        2.0423670935        1.8051879223
 H         -2.5802671248        1.9044751726        2.4088653481
 H         -5.0208503683        1.0851251038       -2.0949543946
 H         -6.5464370926        1.6698889570       -1.4291567033
 H         -6.0424126972       -0.3524873779       -0.3120247959
 H         -5.7726719498        0.9507710462        0.8577058956
 O         -3.8597928555       -1.2552886604       -0.4510350582
 C         -2.6588516996       -1.9509905899       -0.3879585540
 O         -2.6645985250       -2.9991534912       -1.0635741086
 O         -0.8720947150        0.3105018916        1.8013115462
 C         -0.3011897488       -2.1369121999        0.5701110814
 C          0.6540326891       -1.8292205975       -0.5586299700
 C          0.3290792611       -2.1086353566       -1.8819166803
 C          1.2305796495       -1.8341602672       -2.8937525598
 C          2.4650823617       -1.2769873941       -2.6093828464
 C          2.8020485100       -0.9994830373       -1.2894156674
 C          1.8941943887       -1.2757927625       -0.2756613237
 H          2.1690774466       -1.0637273899        0.7456525730
 N          4.0588870405       -0.4694887469       -0.9760744632
 S          4.3150314900        0.5124172892        0.3471629115
 O          5.6061555360        1.1122975710        0.0890590768
 O          4.2076149508       -0.2536133388        1.5631721920
 C          3.0528875092        1.7695337377        0.2804493798
 C          2.1128633742        1.8659488412        1.2843553008
 C          1.1544253138        2.8641232973        1.2130295369
 C          1.1502378048        3.7409770261        0.1401377955
 C          2.1023083388        3.6314396326       -0.8629158494
 C          3.0646588803        2.6385143031       -0.7939194636
 H          3.8302366498        2.5362460222       -1.5457700307
 H          2.0957877025        4.3174457504       -1.6946985439
 H          0.4026299143        4.5172482964        0.0867224118
 H          0.4110096481        2.9336511753        1.9906514979
 H          2.1331207881        1.1648595899        2.1026446286
 H          4.6294558041       -0.2098103491       -1.7661899104
 H          3.1673390787       -1.0667318318       -3.4013463059
 H          0.9686206390       -2.0554935911       -3.9174523088
 H         -0.6331868842       -2.5427329859       -2.1064276770
 H          0.1314736652       -1.7153047766        1.4881924794
 C         -0.4243541561       -3.6376537125        0.7506677783
 C          0.6985438818       -4.3804638159        1.4077571524
 C         -0.6042781114       -4.2003749202        2.1268484353
 H         -1.2494655296       -5.0569196783        2.2522206654
 H         -0.6386049255       -3.5040800002        2.9523110242
 H          0.9508356634       -5.3629178371        1.0392470375
 H          1.5495077160       -3.8071325665        1.7452855633
 H         -0.9473811183       -4.1280517212       -0.0597417557
