  62
        -98.93955365
 C         -2.6522935146       -0.8752701031        0.4093838980
 C         -2.6577006412        0.2742547845        1.2369900585
 C         -3.4545292055        1.4082003458        0.7585714541
 C         -4.1150153998        1.3121318053       -0.4098944842
 C         -4.9945261457        2.3699418804       -1.0194933405
 C         -4.2313809360        3.4285182528       -1.8273180344
 C         -3.4202609406        4.4216023966       -0.9942181266
 H         -3.1170295195        5.2285714563       -1.6641323531
 H         -4.0605970645        4.8584517175       -0.2272815252
 C         -2.1656103394        3.8239692558       -0.3420176539
 H         -1.9160485996        2.8788198840       -0.8304344073
 H         -1.3192520077        4.4967130327       -0.4975595505
 C         -2.2858867438        3.5876436893        1.1636379927
 H         -2.4050288151        4.5446336913        1.6763609830
 H         -1.3566726468        3.1311798955        1.5140904061
 C         -3.4465226537        2.6694278453        1.5690119861
 H         -3.3136463283        2.3906554582        2.6172206521
 H         -4.3956462638        3.1944256878        1.4644104623
 H         -3.5710213280        2.9195840244       -2.5333913989
 H         -4.9682734265        3.9894047001       -2.4067867828
 H         -5.6804708809        1.8518436019       -1.6930874610
 H         -5.5773471302        2.8571477083       -0.2372745380
 O         -4.0696182906        0.1976452693       -1.1857548209
 C         -3.3206168528       -0.9109990197       -0.8150154686
 O         -3.3454175521       -1.8387931959       -1.6446583934
 O         -2.0268655924        0.3477037461        2.3265560732
 C         -1.8354223746       -2.0774621739        0.8536346708
 C         -0.6179380060       -2.1866531873       -0.0319491825
 C         -0.4323289593       -3.1957805912       -0.9663733543
 C          0.6989608137       -3.2067872684       -1.7650880936
 C          1.6635127807       -2.2235170566       -1.6477551098
 C          1.4913822323       -1.2129697003       -0.7093729269
 C          0.3588829766       -1.2047163524        0.0906632187
 H          0.2181579753       -0.4180676365        0.8215405503
 N          2.4618463745       -0.1994892305       -0.5871097252
 S          4.0776007465       -0.6984859744       -0.5655943307
 O          4.5138249606       -0.8864856567       -1.9266010216
 O          4.2318296870       -1.8395788506        0.3088453075
 C          4.8769346957        0.7326670444        0.1319264072
 C          5.2071041199        1.7849795911       -0.7007480517
 C          5.8096131825        2.9068304174       -0.1540961359
 C          6.0691777742        2.9579877364        1.2074984626
 C          5.7329538319        1.8933705663        2.0301711282
 C          5.1291625258        0.7686752830        1.4902444685
 H          4.8598153551       -0.0858538915        2.0903661463
 H          5.9386825885        1.9345458085        3.0877118308
 H          6.5397839538        3.8315778886        1.6301304300
 H          6.0753569279        3.7355317443       -0.7903132188
 H          4.9951425523        1.6966446516       -1.7534770114
 H          2.2650548344        0.4160076743        0.1907314781
 H          2.5500287170       -2.2282079362       -2.2613883545
 H          0.8311689264       -3.9944333215       -2.4918082269
 H         -1.1769072961       -3.9661786951       -1.0787457714
 H         -1.4897902391       -1.8310295975        1.8678767147
 C         -2.6688988054       -3.3379470490        0.9197299030
 C         -2.1764019058       -4.5043851795        1.7214502626
 C         -3.3425620397       -3.6992479647        2.2082879897
 H         -4.3273359951       -4.1398948480        2.1678743875
 H         -3.1935499951       -3.0411759230        3.0519178886
 H         -2.3592097420       -5.5007054264        1.3490001766
 H         -1.2323841590       -4.3931762569        2.2334333890
 H         -3.2098292960       -3.5404248109        0.0034685324
