  62
        -98.94371268
 C          1.9487874499        1.2285295001        0.1533882389
 C          2.5043014502        0.3907721810        1.1535146495
 C          3.8751958901       -0.0730494791        0.9207295895
 C          4.5209053099        0.2948733100       -0.2010680609
 C          5.9358075898       -0.0628941402       -0.5672134509
 C          6.0831984498       -1.4362180207       -1.2359956898
 C          5.9004347500       -2.6350648400       -0.3046177288
 H          6.2414475900       -3.5184230304       -0.8481495382
 H          6.5466558602       -2.5194931393        0.5661279510
 C          4.4531825801       -2.8655083897        0.1525079817
 H          4.2046054602       -3.9248332998        0.0551014126
 H          3.7718049400       -2.3172263903       -0.5026077386
 C          4.1748365404       -2.4666575386        1.6018643114
 H          3.1148749905       -2.6390734285        1.8059800218
 H          4.7543599506       -3.1030827180        2.2744099218
 C          4.4887615804       -1.0001411683        1.9262651302
 H          4.0577594806       -0.7654362275        2.9026398701
 H          5.5669580604       -0.8490229782        1.9747522098
 H          5.3687087796       -1.5026242215       -2.0597736096
 H          7.0877061997       -1.4846136310       -1.6626797900
 H          6.5654239600       -0.0208367095        0.3220908489
 H          6.2759475496        0.7000061592       -1.2707952716
 O          3.9457950496        1.0782184592       -1.1492902114
 C          2.6439744896        1.5439673692       -1.0147119715
 O          2.2504040694        2.2190758584       -1.9834600220
 O          1.8835254704        0.0548907218        2.1983484799
 C          0.5307312299        1.7313850902        0.3681420188
 C         -0.4123102302        0.9225003395       -0.4877561804
 C         -0.8104572205        1.3200400184       -1.7580482106
 C         -1.6719092406        0.5301452378       -2.4996894198
 C         -2.1637605304       -0.6573163319       -1.9881223087
 C         -1.7702529902       -1.0624477708       -0.7192946985
 C         -0.8985592200       -0.2763785702        0.0185579807
 H         -0.5822513398       -0.5974824294        1.0026940909
 N         -2.3151232200       -2.2447709704       -0.1741411774
 S         -3.9912437499       -2.2372444904       -0.0536645271
 O         -4.3084309497       -3.1159666595        1.0498793437
 O         -4.5617876802       -2.5929288215       -1.3282033166
 C         -4.3870874100       -0.5425916601        0.3414606417
 C         -4.9426340002        0.2765416991       -0.6200162889
 C         -5.1457969802        1.6147157493       -0.3233127599
 C         -4.7862550200        2.1091636803        0.9205634896
 C         -4.2356603797        1.2716435011        1.8787187402
 C         -4.0295941397       -0.0668076891        1.5875326012
 H         -3.6052394795       -0.7464612585        2.3094870317
 H         -3.9590531496        1.6576995719        2.8470171798
 H         -4.9352524300        3.1533868505        1.1461245788
 H         -5.5754072304        2.2683045987       -1.0650613404
 H         -5.2039500504       -0.1470560817       -1.5756513485
 H         -1.9063585698       -2.4933367397        0.7158237227
 H         -2.8495347805       -1.2752296224       -2.5452511481
 H         -1.9690777309        0.8468234169       -3.4877303100
 H         -0.4259723607        2.2381737381       -2.1703556914
 H          0.3053173501        1.4980163810        1.4177893590
 C          0.3834610398        3.2244586400        0.1653349576
 C         -0.8821234302        3.8864549903        0.6204302273
 C          0.3986096900        4.1290963410        1.3592549769
 H          0.8741369799        5.0940104010        1.2665385760
 H          0.5236322702        3.6743490718        2.3311288172
 H         -1.2895367004        4.6859389798        0.0215032468
 H         -1.6281926100        3.2594919006        1.0855313480
 H          0.8519839296        3.5890974493       -0.7394563528
