  62
        -98.94128471
 C          2.6994904903        0.2487566511       -0.2501076634
 C          2.2771163965        1.0345474092        0.8513499861
 C          1.7658328831        2.3768829327        0.5209037951
 C          1.7166364545        2.7768400813       -0.7610119243
 C          1.2042935464        4.1076469488       -1.2310488417
 C         -0.2894397715        4.0549996610       -1.5756584876
 C         -1.1591749999        3.4232105678       -0.4881420816
 H         -2.1974793617        3.5001435056       -0.8206267730
 H         -0.9311224325        2.3566858765       -0.4177303919
 C         -1.0195351264        4.0669568947        0.8980244402
 H         -0.5879392283        5.0647627437        0.8025986810
 H         -2.0165494585        4.1819042718        1.3286520364
 C         -0.1985640952        3.2492756249        1.8974367442
 H         -0.3721995542        3.6597856524        2.8963389792
 H         -0.5547934521        2.2155032353        1.9016141455
 C          1.3182071315        3.2404946977        1.6664367283
 H          1.6784315377        4.2644764322        1.5408245703
 H          1.7870030670        2.8168283956        2.5597360487
 H         -0.6317230304        5.0734042134       -1.7716020660
 H         -0.4138614751        3.4692541889       -2.4893703129
 H          1.3818889268        4.8499608180       -0.4548740011
 H          1.7631185846        4.3894792215       -2.1255902042
 O          2.1250758506        1.9937385204       -1.7931309931
 C          2.5927410752        0.7127109309       -1.5636078581
 O          2.9095570907        0.0913262324       -2.5998693738
 O          2.3321329741        0.6687203949        2.0535374364
 C          3.1909127706       -1.1865177069       -0.1306242773
 C          2.0429055218       -2.1272650965       -0.4018076683
 C          2.2023562988       -3.2609309298       -1.1902743938
 C          1.1243399715       -4.0848578457       -1.4625943727
 C         -0.1365324055       -3.7771088313       -0.9838138908
 C         -0.3053509353       -2.6446297388       -0.1959195952
 C          0.7858231120       -1.8473446685        0.1120361450
 H          0.6372212144       -0.9771978646        0.7337826579
 N         -1.5676080223       -2.2671965985        0.2947108112
 S         -1.8986801614       -0.6044117213        0.2252589922
 O         -1.3315100663       -0.0470862379       -0.9812438744
 O         -1.5021655005       -0.0017364561        1.4714087521
 C         -3.6788656430       -0.6270357576        0.1207396942
 C         -4.4129458454       -0.7541079129        1.2849111556
 C         -5.7951675641       -0.8111856442        1.2017522237
 C         -6.4163632104       -0.7420882448       -0.0365429549
 C         -5.6663670225       -0.6118540128       -1.1958469997
 C         -4.2834322747       -0.5555404952       -1.1198693577
 H         -3.6585345359       -0.4455844730       -1.9918956075
 H         -6.1517230072       -0.5539446901       -2.1567332283
 H         -7.4921291818       -0.7865765902       -0.0986019945
 H         -6.3814603249       -0.9088694959        2.1010790257
 H         -3.8851601412       -0.7943592744        2.2235096401
 H         -2.3211498673       -2.8121579527       -0.1030219673
 H         -0.9842105748       -4.4010140366       -1.2235784095
 H          1.2616192962       -4.9619427948       -2.0766382079
 H          3.1725949918       -3.4794514924       -1.6117889582
 H          3.9200974779       -1.3201343408       -0.9472997562
 C          3.9094228848       -1.4923412574        1.1744280170
 C          3.2817718085       -2.2721881436        2.2861990589
 C          4.3757026927       -2.8875860605        1.4695971354
 H          5.3468365271       -3.0191797173        1.9219023670
 H          4.1004633040       -3.6653285333        0.7738110254
 H          3.4917682354       -1.9581562536        3.2969486333
 H          2.2726427343       -2.6285098744        2.1460804308
 H          4.5714115861       -0.6850760264        1.4686911031
