  62
        -98.93814547
 C          1.1601467699        1.4927144234       -0.3313352556
 C          2.3454178649        1.5073964486        0.4426738190
 C          3.2540677143        0.3558389635        0.2955004694
 C          2.9202313791       -0.6296300719       -0.5569522390
 C          3.6714508010       -1.8984026669       -0.8734492324
 C          5.1885505511       -1.7671079222       -1.0800792415
 C          6.0124395385       -2.3882204871        0.0492522603
 H          5.5335146772       -3.3195187748        0.3587237937
 H          7.0006757579       -2.6446423662       -0.3390289689
 C          6.2153437579       -1.4947378443        1.2717600374
 H          6.9093711153       -0.6897816673        1.0199214378
 H          6.6895063847       -2.0996982714        2.0483312484
 C          4.9412915213       -0.8712013301        1.8454982163
 H          5.1361227116       -0.6172214435        2.8896944652
 H          4.1268899655       -1.5945047943        1.8417435957
 C          4.5071242792        0.4146688086        1.1260302122
 H          4.3125134566        1.1992782616        1.8638194520
 H          5.3255109613        0.7874625128        0.5030907804
 H          5.4449809015       -2.2842833821       -2.0061167645
 H          5.4563406645       -0.7199771781       -1.2120490650
 H          3.4696863256       -2.6279809582       -0.0852257338
 H          3.2078781582       -2.2812842444       -1.7852248134
 O          1.7638503402       -0.6056085908       -1.2765664381
 C          0.8537776405        0.4317529169       -1.1833823913
 O         -0.1503989184        0.2881045692       -1.9055076360
 O          2.6359113828        2.4479583986        1.2300192067
 C          0.1879303967        2.6503525213       -0.1663143878
 C         -1.0123805220        2.1212550370        0.5768658534
 C         -1.0004335625        2.0877618093        1.9681955907
 C         -2.0430212314        1.5121279076        2.6711039799
 C         -3.1099197515        0.9380570001        2.0010425987
 C         -3.1221503020        0.9553559344        0.6129309095
 C         -2.0936675831        1.5656696360       -0.0905542595
 H         -2.1151005757        1.5619775163       -1.1684725088
 N         -4.1786013937        0.3244535275       -0.0822458008
 S         -4.2964364508       -1.3332884886        0.1353407959
 O         -5.2034404528       -1.7939984027       -0.8915636599
 O         -4.6963824914       -1.5915839115        1.4962200255
 C         -2.6632354174       -1.9922910148       -0.1484886390
 C         -2.3403480740       -2.4493815799       -1.4095930487
 C         -1.0679085882       -2.9446979360       -1.6386065231
 C         -0.1400692227       -2.9626910012       -0.6101032767
 C         -0.4747870196       -2.4861261563        0.6472407367
 C         -1.7487633443       -1.9974978503        0.8853475636
 H         -2.0450157167       -1.6281473892        1.8537080840
 H          0.2537938632       -2.4868566675        1.4430771671
 H          0.8526044838       -3.3428625079       -0.7923705145
 H         -0.7993596088       -3.3045043735       -2.6187884514
 H         -3.0911708852       -2.4194487748       -2.1830009400
 H         -4.1540245076        0.5168149598       -1.0746508613
 H         -3.9160701055        0.4551103576        2.5292684387
 H         -2.0223937563        1.5009336577        3.7504391079
 H         -0.1525844639        2.5051506808        2.4928938829
 H          0.7017680519        3.3744563796        0.4792267352
 C         -0.1503260409        3.3221096523       -1.4800734447
 C         -0.8278996952        4.6587716512       -1.4613961817
 C          0.6035765279        4.5498902700       -1.8906982499
 H          0.8409119200        4.6823515101       -2.9356740598
 H          1.3676271617        4.9159538966       -1.2207037908
 H         -1.5756752456        4.8700386685       -2.2104151826
 H         -1.0361199578        5.0971259083       -0.4970971031
 H         -0.4219046886        2.6276482212       -2.2651443876
