  62
        -98.93566174
 C          1.8064523570        1.4021837643        0.3736955807
 C          1.5763852034        0.1889812806       -0.3116208992
 C          2.5796525375       -0.8802168001       -0.1302279882
 C          3.6377301955       -0.6476024470        0.6691843544
 C          4.7942644536       -1.5603746856        0.9805765638
 C          5.8047287065       -1.6543453743       -0.1728322744
 C          5.1837750154       -1.8425242608       -1.5541573078
 H          5.9919540920       -1.8044785845       -2.2893777760
 H          4.5161446949       -1.0051061591       -1.7647800527
 C          4.4307991929       -3.1557715015       -1.7550754272
 H          5.1065691609       -3.9905454657       -1.5567721330
 H          4.1434028604       -3.2055408852       -2.8085734887
 C          3.1662942140       -3.3391141966       -0.9119214524
 H          3.4091680596       -3.6355252657        0.1049847688
 H          2.6009300146       -4.1668238278       -1.3499029737
 C          2.2328036312       -2.1328930430       -0.8987376389
 H          1.2550463573       -2.4516527471       -0.5177748938
 H          2.0427317083       -1.8149260552       -1.9306880690
 H          6.4896937561       -2.4778697948        0.0359330828
 H          6.3854284970       -0.7288442329       -0.1912196318
 H          4.4309052935       -2.5460415476        1.2550397481
 H          5.3001468167       -1.1371592830        1.8511538525
 O          3.8158347411        0.5425384170        1.3120853931
 C          2.9207301677        1.5851405956        1.1925004474
 O          3.2129040561        2.6019716113        1.8526955902
 O          0.5766205803       -0.0078957974       -1.0530621388
 C          0.8157677539        2.5482982375        0.2558134283
 C         -0.5349916245        2.0559180284        0.7124958919
 C         -0.6745473889        1.6364390380        2.0333966558
 C         -1.8684402604        1.1140870464        2.4920171380
 C         -2.9458255583        0.9795951641        1.6334828582
 C         -2.8151356866        1.3878598420        0.3135694808
 C         -1.6246531865        1.9424104959       -0.1361783433
 H         -1.5462743979        2.2463623738       -1.1685922569
 N         -3.9158879397        1.1957089182       -0.5613208008
 S         -3.9852645455       -0.3556224850       -1.2475866556
 O         -3.1308199534       -0.3981344721       -2.4160344837
 O         -5.3838930411       -0.6113538003       -1.5168467383
 C         -3.4000861642       -1.4675719291        0.0114497886
 C         -2.0411654548       -1.6541831855        0.1737989109
 C         -1.6072367701       -2.5097556768        1.1743831303
 C         -2.5266952418       -3.1613526782        1.9820427520
 C         -3.8872337612       -2.9678663575        1.7974532322
 C         -4.3309754239       -2.1101274122        0.8042042483
 H         -5.3771537791       -1.9259486666        0.6212221955
 H         -4.5998439079       -3.4783556557        2.4250024792
 H         -2.1781139359       -3.8236446888        2.7588494003
 H         -0.5480091863       -2.6544918050        1.3216867674
 H         -1.3441663832       -1.1302582267       -0.4638115036
 H         -3.8915966716        1.8429820566       -1.3401473980
 H         -3.8809456306        0.5625646283        1.9700077218
 H         -1.9595589244        0.8009599051        3.5205333473
 H          0.1777839048        1.7205062299        2.6942015490
 H          1.1598721834        3.3213216905        0.9568959557
 C          0.8266589868        3.1216479827       -1.1451330035
 C          0.3388923428        4.5184791899       -1.3831950336
 C          1.8021676688        4.2087214452       -1.4770491988
 H          2.2677895298        4.2034120970       -2.4512644414
 H          2.4519639157        4.5515392324       -0.6850695145
 H         -0.1996331064        4.7300074724       -2.2948597407
 H         -0.0064228065        5.0788154986       -0.5275427955
 H          0.6365058248        2.3761921136       -1.9094416137
