  62
        -98.93915651
 C          2.3096514961        1.2653111847       -0.0656406546
 C          3.0297801351        0.4313079207        0.8176016817
 C          3.6029628125       -0.8061372467        0.2542945835
 C          3.3893596385       -1.0817113977       -1.0460635271
 C          3.8104493477       -2.3047634801       -1.8156191906
 C          2.9210045330       -3.5214535251       -1.5091003012
 C          2.5927732914       -3.7246332540       -0.0317978769
 H          1.8673725739       -4.5401233670        0.0376164630
 H          2.0977563498       -2.8288955995        0.3503660237
 C          3.7816068271       -4.0759459836        0.8602588880
 H          4.2306530611       -5.0056597543        0.5039253317
 H          3.3892995165       -4.2600745711        1.8638219210
 C          4.8801029532       -3.0160309230        0.9640898027
 H          5.5024325652       -3.0112937149        0.0735328934
 H          5.5297718873       -3.3030475002        1.7960855007
 C          4.3834420198       -1.6062566780        1.2697837344
 H          5.2467181162       -0.9844798746        1.5368717137
 H          3.7596097868       -1.6353682994        2.1705926360
 H          3.4081611672       -4.4151643396       -1.9025158578
 H          1.9740658831       -3.3893124940       -2.0392148970
 H          4.8556581274       -2.5276869970       -1.6237727380
 H          3.7090772025       -2.0600605383       -2.8751105384
 O          2.6735334247       -0.2541310522       -1.8592175450
 C          2.1060981922        0.9203667467       -1.4017022796
 O          1.4695620234        1.5558276143       -2.2626416742
 O          3.1785598481        0.6968866119        2.0431096034
 C          1.6550386090        2.5242282470        0.4779280330
 C          0.1586575725        2.3495535931        0.3923564255
 C         -0.6910263150        3.2158243913       -0.2808802198
 C         -2.0461281698        2.9421053907       -0.3648169145
 C         -2.5810699454        1.8077326883        0.2176590998
 C         -1.7402753690        0.9404753816        0.9033766540
 C         -0.3882416295        1.2209529978        0.9927212339
 H          0.2665419168        0.5379467560        1.5214912092
 N         -2.2772902866       -0.2318737123        1.4871884263
 S         -2.7460613529       -1.4039772742        0.3680698484
 O         -2.7414180346       -2.6534880083        1.0984599170
 O         -1.9269970235       -1.3547452002       -0.8227420062
 C         -4.4239703717       -0.9547135454       -0.0158154348
 C         -5.3646590039       -1.0333614305        0.9927846741
 C         -6.6744146267       -0.6772622994        0.7140490076
 C         -7.0185302549       -0.2523473257       -0.5608472628
 C         -6.0622701860       -0.1811191143       -1.5625127199
 C         -4.7496342643       -0.5348751450       -1.2902700111
 H         -3.9695811504       -0.4895450318       -2.0336624517
 H         -6.3312453045        0.1499454083       -2.5527155813
 H         -8.0384251513        0.0249513576       -0.7757669487
 H         -7.4209794797       -0.7313517367        1.4898331030
 H         -5.0530571877       -1.3741849513        1.9659413991
 H         -1.6404749133       -0.6590272800        2.1468091473
 H         -3.6341752288        1.5889677086        0.1478653317
 H         -2.6938689391        3.6205763344       -0.8984880494
 H         -0.2904628188        4.0969673166       -0.7541429287
 H          1.9362993220        2.5643818649        1.5405983847
 C          2.1753301227        3.7639720029       -0.2145208009
 C          2.0993254345        5.0921081356        0.4759309751
 C          3.4233892196        4.4130068185        0.3013921113
 H          4.1243881696        4.8199726654       -0.4116892780
 H          3.8914757021        3.9703672700        1.1686096006
 H          1.8928924706        5.9701311902       -0.1168066816
 H          1.6687970286        5.1157334979        1.4654859591
 H          2.0354236105        3.7332116743       -1.2887579886
