  62
        -98.93892480
 C          1.9862699855        1.4512144462       -0.3991291135
 C          2.9447321087        1.3138220685        0.6392979474
 C          4.1166470367        0.4798334648        0.3501869925
 C          4.2245131226       -0.0953123456       -0.8608502778
 C          5.3278112957       -1.0251027512       -1.2743395441
 C          4.9595379430       -2.4861463653       -0.9805685482
 C          4.4377047216       -2.7191133747        0.4375427408
 H          3.4803858727       -2.2050035526        0.5540105556
 H          4.2401754770       -3.7885896560        0.5390665995
 C          5.3955782745       -2.2671814102        1.5489837972
 H          5.4402053227       -3.0482942715        2.3107771051
 H          6.4018980020       -2.1505562513        1.1451551466
 C          4.9810682147       -0.9762165614        2.2575341300
 H          5.5950726823       -0.8693930959        3.1557165006
 H          3.9393941082       -1.0532781880        2.5796087674
 C          5.1373573658        0.3121948177        1.4401540148
 H          4.9901953707        1.1566485050        2.1197209337
 H          6.1487020644        0.3696577459        1.0326877378
 H          5.8414105329       -3.1061238338       -1.1524394219
 H          4.1837709285       -2.7958534793       -1.6850961196
 H          6.2399878487       -0.7555063213       -0.7454639707
 H          5.4917564653       -0.9096094714       -2.3470722382
 O          3.3018519316        0.0731315890       -1.8394272298
 C          2.1503612876        0.8342265157       -1.6400246047
 O          1.4094859755        0.8727165399       -2.6376648665
 O          2.8214513609        1.8749554911        1.7612119077
 C          0.7603213650        2.2767891233       -0.0490291790
 C         -0.2159429201        1.4348532765        0.7344928214
 C         -0.7468149665        1.9022261567        1.9319720510
 C         -1.6199149517        1.1250042535        2.6715140689
 C         -1.9975282842       -0.1248876711        2.2158092713
 C         -1.4774006363       -0.5996779684        1.0174575576
 C         -0.5837115698        0.1719727294        0.2889735623
 H         -0.1795638859       -0.2177231465       -0.6339760734
 N         -1.8663013789       -1.8590925669        0.5042785223
 S         -2.8972856493       -1.7919002018       -0.8173296676
 O         -3.2627611474       -3.1629557156       -1.0951913307
 O         -2.2719992991       -1.0527052342       -1.8806846962
 C         -4.3172341728       -0.9032548572       -0.1994105258
 C         -5.3833485731       -1.6155980180        0.3144649128
 C         -6.4487490633       -0.9228804524        0.8669433678
 C         -6.4237019305        0.4630818703        0.9071112893
 C         -5.3446563572        1.1635895887        0.3899902077
 C         -4.2782844081        0.4767417916       -0.1687399860
 H         -3.4260585681        0.9879748205       -0.5867485897
 H         -5.3252007187        2.2410213457        0.4197402648
 H         -7.2507551852        1.0016767189        1.3419354882
 H         -7.2909388594       -1.4647265773        1.2661983472
 H         -5.3599767415       -2.6920382708        0.2585635485
 H         -2.2752425955       -2.4659097948        1.2027817579
 H         -2.6831165864       -0.7354071100        2.7843625276
 H         -2.0138344580        1.4968420373        3.6045774789
 H         -0.4503056241        2.8763131478        2.2915590469
 H          1.1310304427        3.0564370524        0.6370115812
 C          0.1134242991        2.9942121777       -1.2220932829
 C         -1.0598500589        2.4606316892       -1.9811091935
 C         -1.2375970391        3.6288062380       -1.0609757650
 H         -1.4054470378        4.6032481564       -1.4938078184
 H         -1.7569643948        3.4605873849       -0.1292473464
 H         -1.0750451209        2.6280069796       -3.0475483389
 H         -1.4578879447        1.4954032106       -1.7085811533
 H          0.8463223746        3.5417208576       -1.8064050415
