  62
        -98.93835361
 C         -1.7916809378        0.0149719257       -0.1332099026
 C         -2.9037510544        0.8940342160       -0.1244684466
 C         -4.1499096042        0.3360010096        0.4253316838
 C         -4.1731509862       -0.9142970112        0.9181098997
 C         -5.3576558284       -1.6025793744        1.5405798187
 C         -6.3099974584       -2.2494049216        0.5255739396
 C         -7.1612773661       -1.2701449032       -0.2836823095
 H         -7.9293753313       -1.8570382022       -0.7913667279
 H         -7.6708443340       -0.5859332245        0.3955115603
 C         -6.3787241866       -0.4688175659       -1.3334198806
 H         -5.4174804278       -0.9535745182       -1.5192273373
 H         -6.9271038153       -0.4733394424       -2.2782064616
 C         -6.1311704566        0.9929177295       -0.9604351805
 H         -5.5384414485        1.4539485124       -1.7547134315
 H         -7.0846526339        1.5226131410       -0.9018921080
 C         -5.3815276228        1.1885986347        0.3637326210
 H         -6.0394096752        0.9695819040        1.2044832981
 H         -5.0661137524        2.2329350619        0.4274222567
 H         -5.7246199155       -2.8719408425       -0.1550141406
 H         -6.9817793147       -2.9068138799        1.0823834891
 H         -5.9098372269       -0.8943533157        2.1590201329
 H         -4.9561713170       -2.3877728069        2.1847933675
 O         -3.0739770873       -1.7149420660        0.9245758803
 C         -1.8754387988       -1.2805498234        0.3854308988
 O         -0.9626971825       -2.1305712257        0.4232681318
 O         -2.8823805075        2.0805960784       -0.5378249406
 C         -0.4303365504        0.3946858703       -0.6902878700
 C          0.4364394838        1.0624746580        0.3457170151
 C         -0.0529911752        2.0645605989        1.1768526266
 C          0.7775287030        2.6745064497        2.0993359682
 C          2.1115678993        2.3183219728        2.1925605182
 C          2.6108855491        1.3199449742        1.3650664262
 C          1.7661191992        0.6866100946        0.4645952767
 H          2.1532304921       -0.1063743122       -0.1562883678
 N          3.9566590585        0.9330172063        1.4253686789
 S          4.7790196651        0.6032367406        0.0026142454
 O          6.1707724343        0.8316325185        0.3257599750
 O          4.2456184577        1.3646574466       -1.1017321076
 C          4.5258783822       -1.1380895522       -0.2615194671
 C          4.0010373930       -1.5822975493       -1.4586786112
 C          3.8230352808       -2.9435634605       -1.6486082710
 C          4.1728836073       -3.8316686270       -0.6434805530
 C          4.7029152283       -3.3696534282        0.5518713381
 C          4.8833701035       -2.0101793017        0.7475702559
 H          5.2958967219       -1.6135114781        1.6601699246
 H          4.9732190349       -4.0646495856        1.3305001124
 H          4.0303422408       -4.8902001263       -0.7936355823
 H          3.4093546798       -3.3041141534       -2.5768357038
 H          3.7365792912       -0.8578038610       -2.2133757261
 H          4.5224568738        1.4591067632        2.0752389375
 H          2.7621299585        2.8086828283        2.9009004044
 H          0.3857867463        3.4487696516        2.7419138407
 H         -1.0844007783        2.3686715132        1.0849698163
 H          0.0514810704       -0.5625367204       -0.9474110298
 C         -0.5138424701        1.2086290311       -1.9752789249
 C         -0.2231584988        2.6737344735       -2.0508554206
 C          0.7366789272        1.6923804529       -2.6497247994
 H          0.7998349094        1.6232145261       -3.7256251816
 H          1.6809331015        1.5444343560       -2.1445879139
 H         -0.8378169892        3.2731778387       -2.7049404853
 H          0.0682709959        3.1828722784       -1.1458046038
 H         -1.3030749402        0.8456007617       -2.6267681336
