  62
        -98.93998892
 C         -2.1044077180       -1.4417510742        0.5321282800
 C         -2.0631570158       -0.2393914929        1.2848269844
 C         -3.1139159662        0.7420945731        1.0026082983
 C         -4.0585449768        0.4580028451        0.0880568069
 C         -5.2108674471        1.3446489285       -0.2990878563
 C         -4.8561701529        2.3995943147       -1.3561027788
 C         -3.9800201623        3.5502619767       -0.8590922451
 H         -3.9929959180        4.3190462986       -1.6342706700
 H         -4.4265985080        3.9841438102        0.0361120566
 C         -2.5225618162        3.1600164395       -0.5745154669
 H         -2.2981796443        2.2065319232       -1.0581646828
 H         -1.8561413822        3.9044221905       -1.0150190567
 C         -2.1711733146        3.0550686442        0.9097512876
 H         -1.1340468742        2.7208075018        0.9911816886
 H         -2.2521345302        4.0389329671        1.3771520450
 C         -3.0444109735        2.0686972677        1.6960189995
 H         -4.0441805477        2.4778375852        1.8399183791
 H         -2.5863877779        1.9086140259        2.6750938286
 H         -4.3630334153        1.9014514032       -2.1940521229
 H         -5.7951227142        2.8188209729       -1.7252050952
 H         -5.6097343556        1.8361981792        0.5887493218
 H         -5.9826965371        0.6906630027       -0.7107365249
 O         -4.0783650198       -0.7134950387       -0.5980372524
 C         -3.0848718598       -1.6747990812       -0.4328341269
 O         -3.2136179999       -2.6558278178       -1.1869444989
 O         -1.1855729077       -0.0049589588        2.1584031698
 C         -0.9811608798       -2.4283266064        0.7983879626
 C          0.2204096305       -2.0323573181       -0.0213974762
 C          0.1247391488       -1.8725591380       -1.4006804464
 C          1.2260456513       -1.4765400671       -2.1370299903
 C          2.4362043308       -1.2186965301       -1.5158113223
 C          2.5361138780       -1.3555089584       -0.1378836642
 C          1.4314720186       -1.7667466566        0.5985342665
 H          1.5103658533       -1.8624464283        1.6726479836
 N          3.7550791750       -1.0852990015        0.5054179535
 S          4.6092446090        0.2913808970        0.0857448147
 O          5.2383940424        0.0937184368       -1.1957534719
 O          5.4973733029        0.5303330642        1.2001189622
 C          3.3924780451        1.5902263323       -0.0254365955
 C          3.0182641145        2.0836509126       -1.2585397220
 C          2.0507230562        3.0739997797       -1.3173237137
 C          1.4782912848        3.5510287007       -0.1487370542
 C          1.8655516291        3.0454988648        1.0830162726
 C          2.8291576408        2.0529615171        1.1473690462
 H          3.1597933293        1.6447238105        2.0888660539
 H          1.4166810184        3.4162157471        1.9907095284
 H          0.7266364699        4.3233032687       -0.1953877033
 H          1.7462564838        3.4695276974       -2.2729414968
 H          3.4944826880        1.6943106786       -2.1433764076
 H          3.7187445965       -1.1909597371        1.5087345233
 H          3.3035906999       -0.9152710757       -2.0786130986
 H          1.1426119349       -1.3648708630       -3.2075569467
 H         -0.8227505232       -2.0618788535       -1.8838954201
 H         -0.7190216715       -2.2751761750        1.8576277142
 C         -1.3757048620       -3.8878961702        0.6392786865
 C         -0.8449706591       -4.7803319072       -0.4382618925
 C         -0.3839783327       -4.9629023057        0.9746942001
 H         -0.7210061645       -5.8276945269        1.5257628541
 H          0.6224389307       -4.6513243201        1.2124917066
 H         -1.5233904810       -5.5038780506       -0.8637007524
 H         -0.1477614345       -4.3688728209       -1.1508701318
 H         -2.4027502954       -4.0649194682        0.9402153296
