  62
        -98.93383823
 C         -2.1146227419       -0.4459806745        0.4029609979
 C         -3.1822138627       -0.6645830994       -0.4992716155
 C         -4.1609643926        0.4312190983       -0.6420015002
 C         -3.9952380914        1.5705098124        0.0535384688
 C         -4.7986623197        2.8544062686        0.0718618706
 C         -6.2150281399        2.8994344570       -0.4969073788
 C         -7.2417644577        2.0674107643        0.2703402040
 H         -7.4025382749        2.5281780931        1.2482628968
 H         -8.1871469931        2.1064749190       -0.2752431798
 C         -6.8642881758        0.6068974550        0.5053224507
 H         -5.9831671826        0.5544012989        1.1483079803
 H         -7.6863862471        0.1328923145        1.0485350345
 C         -6.6070646859       -0.2135722891       -0.7572276529
 H         -7.4636321057       -0.1324835516       -1.4290552261
 H         -6.5161547777       -1.2601075555       -0.4547848919
 C         -5.3329969695        0.1527424803       -1.5389572325
 H         -5.0531651547       -0.7093967085       -2.1508157291
 H         -5.5062462646        0.9886691214       -2.2121566188
 H         -6.5345915395        3.9440255369       -0.4483448565
 H         -6.2089409948        2.6210141382       -1.5464936839
 H         -4.8236574434        3.1713521497        1.1193432647
 H         -4.1888554923        3.5944081996       -0.4584750544
 O         -2.9314094765        1.7484443720        0.8923874503
 C         -1.9905901167        0.7584219877        1.0996128751
 O         -1.1069506329        1.0634915627        1.9276880332
 H          1.5352935181       -0.7104100311        0.8990577508
 C          1.3024733811       -1.0700997443       -0.0923486383
 C          0.0151987275       -1.4961195122       -0.3887239198
 C         -0.2666479210       -1.9337634498       -1.6787906463
 C          0.7218290827       -1.9374447161       -2.6454685188
 C          2.0031479374       -1.5088658889       -2.3480330024
 C          2.2967081058       -1.0736484388       -1.0606645041
 N          3.6049249564       -0.6802251021       -0.7271844931
 S          3.8441139256        0.5590270994        0.3932453252
 O          3.6254558422        0.0369403505        1.7185009189
 O          3.0780496165        1.7268766212        0.0175241443
 C          5.5867725200        0.8521111340        0.1515568928
 C          6.0051976722        1.9478415465       -0.5787672219
 C          7.3633849891        2.1410840960       -0.7789696150
 C          8.2743770014        1.2387157182       -0.2512070778
 C          7.8392051026        0.1436202859        0.4807296373
 C          6.4832923566       -0.0543412844        0.6860871043
 H          6.0984686947       -0.8843747509        1.2550907234
 H          8.5504563454       -0.5545129145        0.8917034856
 H          9.3303528466        1.3911891880       -0.4090780693
 H          7.7045152414        2.9931677977       -1.3445197371
 H          5.2605927513        2.6259630145       -0.9639512085
 H          4.1852055496       -0.5417721561       -1.5440867280
 H          2.7726553416       -1.5127839134       -3.1051620519
 H          0.4906663865       -2.2742617684       -3.6448084587
 H         -1.2699470885       -2.2492515365       -1.9187168493
 C         -1.0390131771       -1.4813567851        0.6929536676
 H         -0.5522406285       -1.1440508613        1.6189410205
 C         -1.5983966297       -2.8715625369        0.9278443267
 C         -0.7736388259       -3.8603116952        1.6928510592
 C         -2.0048118514       -3.2713825005        2.3124982853
 H         -2.8750177564       -3.8990149322        2.4326740312
 H         -1.8807038727       -2.5414311074        3.0999058467
 H         -0.7960064655       -4.8952843933        1.3884402217
 H          0.1862968443       -3.5290403579        2.0608629805
 H         -2.1995469710       -3.2398200153        0.1076164317
 O         -3.3381857894       -1.7176180202       -1.1714757051
