  62
        -98.94462010
 C         -2.6620534014       -1.2957840127        0.1271018842
 C         -2.5603894499       -0.2938213413       -0.8685770540
 C         -3.5503717737        0.7882663924       -0.7858751434
 C         -4.4948005877        0.7651027353        0.1716966114
 C         -5.5883384077        1.7802089497        0.3649951509
 C         -5.1595986961        3.0122269060        1.1735518584
 C         -4.2299916494        3.9798177060        0.4400848742
 H         -4.6662476497        4.2416358055       -0.5243247278
 H         -4.1833438123        4.8936023765        1.0356088001
 C         -2.8024995253        3.4531584659        0.2344468701
 H         -2.0825767181        4.2308292298        0.4996688067
 H         -2.6212199528        2.6114457901        0.9072725408
 C         -2.4861163944        3.0169604078       -1.1963464804
 H         -2.5293515502        3.8827967499       -1.8612449257
 H         -1.4629837951        2.6301311350       -1.2164302419
 C         -3.4201826096        1.9309211864       -1.7469604406
 H         -4.3984880909        2.3555747151       -1.9712826108
 H         -2.9856241548        1.5421115115       -2.6712037413
 H         -4.6795975169        2.6756214971        2.0952665366
 H         -6.0675649960        3.5533423157        1.4491518987
 H         -5.9714413453        2.0956766006       -0.6057545026
 H         -6.3891186274        1.2739551681        0.9082062866
 O         -4.5750057827       -0.2307940280        1.0933236173
 C         -3.6473094344       -1.2578777507        1.1168213401
 O         -3.8087060616       -2.0720890099        2.0476342627
 H          0.4364708880       -1.7754634364       -1.4454953159
 C          0.6324918412       -1.5539842075       -0.4086401329
 C         -0.3187642308       -1.8544388970        0.5526637894
 C         -0.0528135758       -1.5268624070        1.8796324202
 C          1.1373234769       -0.9189650040        2.2311516372
 C          2.0828427631       -0.6139855485        1.2666846352
 C          1.8188454412       -0.9202641043       -0.0607191446
 N          2.7655458279       -0.6029920258       -1.0494531781
 S          3.4559999798        0.9265983517       -1.0290994978
 O          2.5802546139        1.9085273324       -0.4328029077
 O          3.8678038167        1.1737500491       -2.3940083323
 C          4.9106567440        0.7125241352       -0.0224794489
 C          5.1550197384        1.5757093345        1.0274910539
 C          6.3002202289        1.3990201386        1.7886511301
 C          7.1769777033        0.3683887665        1.4869972357
 C          6.9186000475       -0.4885210429        0.4273883375
 C          5.7763369064       -0.3165802088       -0.3378572369
 H          5.5405119069       -0.9587595207       -1.1698126074
 H          7.6026078655       -1.2890935516        0.1961058931
 H          8.0667347173        0.2322754522        2.0812432552
 H          6.5025037499        2.0647229593        2.6123426632
 H          4.4416477233        2.3591819781        1.2289027099
 H          2.4643314873       -0.8431821325       -1.9832835987
 H          3.0070175139       -0.1266704434        1.5314154206
 H          1.3311756308       -0.6750235809        3.2647196611
 H         -0.8020297870       -1.7433592069        2.6290037372
 C         -1.6634585462       -2.4408948893        0.1984634242
 H         -1.9905738834       -3.0742884435        1.0335288072
 C         -1.6628952288       -3.2690639639       -1.0690810968
 C         -1.0151705165       -4.6202080375       -1.0604685900
 C         -2.5073627368       -4.5045164853       -1.1338489934
 H         -2.9993036401       -4.7428267507       -2.0650159582
 H         -3.0854146613       -4.7604222773       -0.2578780013
 H         -0.4809502334       -4.9428262684       -1.9410373943
 H         -0.5781457109       -4.9552932280       -0.1320524439
 H         -1.5902921478       -2.6749445372       -1.9715290285
 O         -1.7011234028       -0.2949900017       -1.7894680807
