  62
        -98.93218808
 C         -2.5992441751       -1.2461554867        0.1973341714
 C         -2.9845586489       -0.2510110231        1.1282674224
 C         -4.1614477800        0.5735597958        0.7968894003
 C         -4.8106412031        0.3315734410       -0.3569119573
 C         -5.9989734252        1.0576989747       -0.9288520259
 C         -5.6237689170        2.4199974894       -1.5348612718
 C         -4.6599780283        3.2544873316       -0.6951939817
 H         -3.7452305766        2.6834328429       -0.5253361518
 H         -4.3868484816        4.1358136108       -1.2815459101
 C         -5.2133313070        3.7381070633        0.6431480653
 H         -4.4559313394        4.3858592742        1.0919851904
 H         -6.1043966406        4.3441197916        0.4643589196
 C         -5.5644011778        2.6466932386        1.6563681645
 H         -6.5078061205        2.1686039833        1.4068043724
 H         -5.7114422417        3.1361875040        2.6236738674
 C         -4.4788188535        1.5948785659        1.8624698532
 H         -4.7204762457        1.0162738191        2.7624642429
 H         -3.5313194973        2.0964808702        2.0901009537
 H         -6.5413282178        2.9844161426       -1.7094286985
 H         -5.1493465032        2.2390296350       -2.5023967222
 H         -6.4017041298        0.4236638412       -1.7218274976
 H         -6.7688417441        1.1686408013       -0.1710038278
 O         -4.4109656015       -0.6426399691       -1.2208601615
 C         -3.3046251699       -1.4446615935       -0.9896198388
 O         -3.0827742013       -2.2660035212       -1.8973552425
 O         -2.3646400551       -0.0538525628        2.2094449339
 C         -1.3765878337       -2.0719555349        0.5547540126
 C         -0.1309094572       -1.4247332450        0.0050970775
 C         -0.0138289929       -1.1170357782       -1.3472218356
 C          1.1337495886       -0.5153938309       -1.8300154873
 C          2.1797293782       -0.1992309385       -0.9798588446
 C          2.0724424757       -0.4985894044        0.3712414297
 C          0.9217258717       -1.1127836307        0.8520985469
 H          0.8359983826       -1.3333132925        1.9076700215
 N          3.1131671393       -0.1560755444        1.2455941807
 S          4.7052239665       -0.4372812560        0.8051801262
 O          4.8158850243       -1.5743376270       -0.0782031977
 O          5.4275533200       -0.5204428393        2.0553685861
 C          5.1847232547        1.0512984267       -0.0456363856
 C          5.7414258785        0.9742611635       -1.3071333672
 C          6.1181124137        2.1453133357       -1.9463293296
 C          5.9333224611        3.3659149906       -1.3154570285
 C          5.3754548796        3.4259464269       -0.0469730866
 C          4.9981004995        2.2590243657        0.5978525217
 H          4.5645244491        2.2640941142        1.5840248966
 H          5.2331472311        4.3770574569        0.4404436033
 H          6.2255274629        4.2760374158       -1.8151498190
 H          6.5524915884        2.1007114055       -2.9321433723
 H          5.8616279745        0.0036468920       -1.7617618355
 H          2.9442621605       -0.3975808327        2.2107769430
 H          3.0729014442        0.2731306560       -1.3544139127
 H          1.2138725136       -0.2845302170       -2.8815501902
 H         -0.8313395980       -1.3561418917       -2.0108808499
 H         -1.3170307235       -2.0163659103        1.6535644423
 C         -1.5073149205       -3.5426308092        0.1860783123
 C         -0.6902392700       -4.2164969412       -0.8707944944
 C         -0.4257048327       -4.5077721270        0.5740095207
 H         -0.7064010785       -5.4708521856        0.9726195433
 H          0.4751412046       -4.0965133372        1.0056658431
 H         -1.1782345621       -4.9665764810       -1.4740513119
 H          0.0364271277       -3.6311677014       -1.4114756118
 H         -2.5286320978       -3.8940502631        0.2919336939
