  62
        -98.93954362
 C         -1.4946481706       -1.1391246696        0.1431178676
 C         -2.5323837721       -0.6284267895        0.9594671034
 C         -3.0449526380        0.7088932851        0.6214497182
 C         -2.4794974749        1.3930602943       -0.3874410286
 C         -2.7959966167        2.7852924079       -0.8742619180
 C         -4.2738014523        3.1873083840       -0.9688733501
 C         -5.2311985228        2.0491885694       -1.3521402209
 H         -5.8521190427        2.3745428055       -2.1887416361
 H         -4.6623254460        1.1800160013       -1.6865573111
 C         -6.1615546318        1.6406035402       -0.2076600486
 H         -6.5293031668        2.5439436549        0.2836703103
 H         -7.0263804359        1.1204731539       -0.6263436299
 C         -5.5436065223        0.7178008942        0.8421518909
 H         -5.3792023275       -0.2746422954        0.4134340273
 H         -6.2657586742        0.5994311838        1.6534842050
 C         -4.2083861009        1.1929304963        1.4385825198
 H         -4.1914066193        2.2733060881        1.5618123057
 H         -4.0955490179        0.7307227513        2.4233769399
 H         -4.5950526262        3.6192342040       -0.0221580494
 H         -4.3358303188        3.9827734038       -1.7134848160
 H         -2.2682029964        3.4926521333       -0.2271202270
 H         -2.3341806793        2.8520678541       -1.8625422525
 O         -1.4536374057        0.8829677508       -1.1219699872
 C         -0.9250389884       -0.3724211783       -0.8721224572
 O          0.0228482612       -0.6767940434       -1.6215621099
 H          0.5240493916       -0.7040128911        1.7976685972
 C          1.1569798362       -1.4023343370        1.2683371318
 C          0.5839335879       -2.4250778708        0.5211621681
 C          1.4245125896       -3.3034258881       -0.1498064179
 C          2.7990472740       -3.1477884012       -0.0855704477
 C          3.3617892276       -2.1026106575        0.6227911824
 C          2.5278855381       -1.2179113394        1.2969151363
 N          3.0408193557       -0.1071910667        2.0036873131
 S          2.6882275986        1.3991077654        1.3529009624
 O          3.3298674111        2.3514927528        2.2349769839
 O          1.2648004146        1.5414258191        1.1875749022
 C          3.5310237153        1.3983792485       -0.2199293319
 C          4.7812779384        1.9834288312       -0.2945655032
 C          5.4819324631        1.9226163849       -1.4877159451
 C          4.9273252242        1.2695861930       -2.5785736532
 C          3.6744896563        0.6841697099       -2.4848073651
 C          2.9634562763        0.7444314365       -1.2950555516
 H          1.9840877463        0.2991051336       -1.2058072662
 H          3.2362767068        0.1742219682       -3.3277310161
 H          5.4730439338        1.2169113856       -3.5074687775
 H          6.4554337531        2.3798442465       -1.5623141490
 H          5.1692481805        2.4811494879        0.5796492938
 H          4.0368260061       -0.1613259961        2.1722893669
 H          4.4322790157       -1.9640833739        0.6497267896
 H          3.4389540996       -3.8381227747       -0.6135095197
 H          1.0054895786       -4.0999599572       -0.7422418319
 C         -0.9222048193       -2.5021025211        0.4892288697
 H         -1.2720015826       -2.6890786795        1.5192463359
 C         -1.4568007767       -3.6428573264       -0.3642210843
 C         -2.7731815593       -3.5281651596       -1.0715139584
 C         -1.5002229304       -3.5629646385       -1.8598605310
 H         -1.2760396840       -4.4535547509       -2.4284450914
 H         -1.1531031656       -2.6502867736       -2.3178523111
 H         -3.4200349595       -4.3924388924       -1.0935169837
 H         -3.3022512375       -2.5890339288       -0.9954718926
 H         -1.2317363274       -4.6136462878        0.0664202087
 O         -3.0032607025       -1.2605431711        1.9440175354
