  62
        -98.94045977
 C         -2.3038821822       -0.7418413997        0.0757861308
 C         -3.1220129140       -0.2325446779        1.1188873442
 C         -4.0665319995        0.8303038882        0.7544552209
 C         -4.0956729090        1.2721318256       -0.5156199648
 C         -5.0435281985        2.3088555172       -1.0434921515
 C         -6.3246976490        1.6635363328       -1.5902522582
 C         -6.9642036854        0.6547932064       -0.6360522503
 H         -7.8756005188        0.2886319757       -1.1136110734
 H         -6.2953796328       -0.2014904242       -0.5220549864
 C         -7.3044567734        1.2191221216        0.7504182210
 H         -7.3229824915        2.3088521299        0.7123957534
 H         -8.3074513592        0.8873312698        1.0267956974
 C         -6.3619189998        0.7671478181        1.8674498156
 H         -6.2668069983       -0.3214430942        1.8486889788
 H         -6.8142837366        1.0393426633        2.8246601818
 C         -4.9535310891        1.3742112363        1.8387638090
 H         -5.0229827478        2.4616488715        1.7693388223
 H         -4.4623178332        1.1198165984        2.7823723422
 H         -7.0399506108        2.4559888651       -1.8178573406
 H         -6.0818491780        1.1472056004       -2.5219840338
 H         -5.2880532248        3.0081819594       -0.2462917090
 H         -4.5471389975        2.8502646692       -1.8506400714
 O         -3.2820838719        0.7817115190       -1.4833335144
 C         -2.3702093073       -0.2352259929       -1.2224874293
 O         -1.7026194877       -0.5670831485       -2.2210565087
 H          0.1855774244       -0.1469629167       -0.9641786754
 C          0.6738651102       -0.4660965560       -0.0545799717
 C          0.0193538987       -1.3462953186        0.7961636751
 C          0.6699088800       -1.7585423647        1.9529358147
 C          1.9444353852       -1.3040522967        2.2444517594
 C          2.5943709714       -0.4310231941        1.3906688637
 C          1.9512955184       -0.0098594040        0.2340337114
 N          2.6074190459        0.8801353923       -0.6413070792
 S          4.0499558569        0.3221163031       -1.3073412465
 O          4.2234462315        1.0697508943       -2.5333121614
 O          4.0495201292       -1.1181917040       -1.4252097183
 C          5.2859449012        0.8367137297       -0.1337368890
 C          5.3898565737        2.1839501091        0.1529360532
 C          6.3507011604        2.6023864696        1.0594985762
 C          7.1884255633        1.6724903652        1.6576429722
 C          7.0736078435        0.3240462231        1.3562561931
 C          6.1135136845       -0.1015931368        0.4512253894
 H          5.9824619512       -1.1394419949        0.1899993837
 H          7.7262489714       -0.3969124043        1.8217059129
 H          7.9354157526        2.0011034286        2.3628660003
 H          6.4429954318        3.6500466414        1.2966189823
 H          4.7216325655        2.8724368491       -0.3369554723
 H          2.0043785830        1.2111168821       -1.3821368923
 H          3.5867154502       -0.0732851260        1.6116826693
 H          2.4374230820       -1.6326702523        3.1463932839
 H          0.1659012764       -2.4335010925        2.6290595102
 C         -1.3532129482       -1.8648542649        0.4511914614
 H         -1.7818567318       -2.2943326573        1.3705838684
 C         -1.3081964559       -2.9775842344       -0.5888166730
 C         -0.1226032802       -3.2625933018       -1.4569113127
 C         -0.4778678946       -4.2032658085       -0.3469436428
 H         -0.8925833501       -5.1681386499       -0.5961449628
 H          0.1618663530       -4.2059329162        0.5226023478
 H         -0.3122262377       -3.5614516150       -2.4768765906
 H          0.7609543038       -2.6518349569       -1.3485098172
 H         -2.2789583302       -3.1344145565       -1.0491277694
 O         -3.0665694441       -0.6582587788        2.3031698788
