  62
        -98.94217507
 C         -2.5403745687       -0.4347678373       -0.4945993536
 C         -1.4972257317        0.3534724659       -1.0388003039
 C         -1.6187669831        1.8055427532       -0.8494115381
 C         -2.6935466596        2.3035926704       -0.2130665337
 C         -2.9118451183        3.7548028238        0.0989528039
 C         -2.3479438098        4.1183057915        1.4798036708
 C         -0.9168064425        3.6341182725        1.7176844785
 H         -0.6177003219        3.9819245896        2.7091595124
 H         -0.9013345064        2.5414822282        1.7502615476
 C          0.1040984649        4.1185246366        0.6788002760
 H         -0.2949357123        4.9785553899        0.1388260588
 H          1.0028119013        4.4495779962        1.2033230832
 C          0.5436590755        3.0456061890       -0.3193414529
 H          0.8439764368        2.1473347589        0.2284304193
 H          1.4261358556        3.4149967026       -0.8494804090
 C         -0.5019598171        2.6624574960       -1.3751521520
 H         -0.0007822091        2.0671636252       -2.1432938442
 H         -0.8967605860        3.5656955711       -1.8446321398
 H         -2.9886733537        3.6726455761        2.2443152287
 H         -2.3881213659        5.2032487048        1.5935358094
 H         -2.4374943786        4.3621092979       -0.6693516382
 H         -3.9855737483        3.9499847521        0.0935279364
 O         -3.6957188029        1.5209571079        0.2626742575
 C         -3.6269139200        0.1424479641        0.1699272776
 O         -4.5865338377       -0.4543670039        0.6973311864
 O         -0.5063521142       -0.1112969474       -1.6622382951
 C         -2.4818606224       -1.9578496012       -0.4930245053
 C         -1.3906903496       -2.3020068873        0.4909194174
 C         -1.6913738193       -2.4236948919        1.8444997623
 C         -0.6843458446       -2.5270562124        2.7872495420
 C          0.6436171013       -2.4684457281        2.4015829278
 C          0.9490076814       -2.3561581458        1.0533779048
 C         -0.0594330336       -2.3232108869        0.1030842878
 H          0.1974232835       -2.2266786105       -0.9396415445
 N          2.3000829784       -2.1802574894        0.6759667522
 S          2.9020742193       -0.6682282060        1.1686639951
 O          3.9286782281       -0.9056499427        2.1582200052
 O          1.8119390250        0.1749202795        1.6012469918
 C          3.6452915576       -0.0037212369       -0.3114146448
 C          2.8197773051        0.3279830625       -1.3696585857
 C          3.3912579810        0.8566546595       -2.5168809602
 C          4.7638723024        1.0408555215       -2.5886620211
 C          5.5768047600        0.6984756543       -1.5188198855
 C          5.0145446148        0.1708726021       -0.3672386643
 H          5.6030459510       -0.1080390181        0.4914893047
 H          6.6436922215        0.8417973483       -1.5771808136
 H          5.2005160397        1.4541905470       -3.4841512946
 H          2.7566135617        1.1203951659       -3.3480078946
 H          1.7520502094        0.1802060847       -1.2914137709
 H          2.4170099705       -2.2699338275       -0.3253074597
 H          1.4452201989       -2.4720877490        3.1241242837
 H         -0.9353045402       -2.6177902328        3.8337138195
 H         -2.7270526750       -2.3951244598        2.1545841919
 H         -3.4414308960       -2.3005663555       -0.0859088865
 C         -2.2940633641       -2.5500997643       -1.8726767655
 C         -2.5219540261       -4.0181714344       -2.0688530811
 C         -3.4942819790       -3.0268863885       -2.6318737795
 H         -3.5189167803       -2.8775452798       -3.7008443284
 H         -4.4590375355       -2.9286816198       -2.1558347165
 H         -1.8802694532       -4.5540123844       -2.7512313565
 H         -2.8261406053       -4.5932352882       -1.2072481827
 H         -1.5070754441       -2.0780916829       -2.4456582739
