  62
        -98.93446123
 C         -2.3536024625        0.7212204777        0.0953060374
 C         -3.4960522343        1.0844109767       -0.6532305027
 C         -4.7951798781        0.6270917356       -0.1306520231
 C         -4.8237129691       -0.0878255545        1.0077909197
 C         -6.0269699572       -0.6916378095        1.6780273308
 C         -6.2312329145       -2.1464311796        1.2217993408
 C         -7.0679693887       -2.3126727928       -0.0461239204
 H         -7.0264201438       -3.3676355693       -0.3266346231
 H         -8.1097674506       -2.0740362327        0.1777954280
 C         -6.6194276501       -1.4682289321       -1.2416646082
 H         -5.5312072461       -1.4943753592       -1.3229529958
 H         -7.0218864815       -1.9279348539       -2.1464564315
 C         -7.1025729199       -0.0122096818       -1.1674827376
 H         -7.5936368097        0.2539515169       -2.1058055684
 H         -7.8592320499        0.0727930782       -0.3878178903
 C         -6.0011563155        1.0323647755       -0.9340269769
 H         -6.4439545929        1.9210050725       -0.4719305867
 H         -5.5941920130        1.3537097853       -1.8980636898
 H         -5.2441979796       -2.5920890922        1.0736992435
 H         -6.7218136822       -2.6997569151        2.0251015724
 H         -5.8188026448       -0.6892473741        2.7498860287
 H         -6.9131832518       -0.0924886145        1.4914881087
 O         -3.6967994297       -0.4130624552        1.7006495907
 C         -2.4400574064       -0.0246915480        1.2701376241
 O         -1.5050069375       -0.3967937732        2.0040752529
 O         -3.4335633017        1.7538977703       -1.7205563744
 C         -0.9867656193        1.1677253565       -0.3861122243
 C         -0.0742382073       -0.0149951478       -0.5976804551
 C         -0.5511054292       -1.1272156096       -1.2876210869
 C          0.2627519097       -2.2187001036       -1.5186387654
 C          1.5778392627       -2.2181554881       -1.0873183977
 C          2.0657992593       -1.1122565284       -0.4029320827
 C          1.2397965293       -0.0231195525       -0.1588394792
 H          1.6471201672        0.8182980989        0.3759186229
 N          3.3905427301       -1.0814102743        0.0611357945
 S          4.2104259348        0.3947963907        0.0403605533
 O          3.9052897024        1.1192007012        1.2483051013
 O          3.9537314831        1.0860285180       -1.2027702035
 C          5.9008420778       -0.1727432372        0.0916838337
 C          6.4483037776       -0.5240504651        1.3113110322
 C          7.7525575626       -0.9908554618        1.3501582022
 C          8.4834511751       -1.0986532451        0.1761577109
 C          7.9212389720       -0.7408124030       -1.0399692977
 C          6.6169067211       -0.2742325300       -1.0862158583
 H          6.1416604332        0.0245091824       -2.0067143793
 H          8.4930490286       -0.8223781070       -1.9502735161
 H          9.4987695126       -1.4609716881        0.2098429949
 H          8.1940773334       -1.2673052459        2.2940071326
 H          5.8452125136       -0.4146315065        2.1976840863
 H          3.9568599046       -1.8319352966       -0.3099254337
 H          2.2163990903       -3.0683247047       -1.2733407094
 H         -0.1258412842       -3.0751719263       -2.0491457742
 H         -1.5744411039       -1.1234493442       -1.6384269909
 H         -1.1594627144        1.6401126774       -1.3656565506
 C         -0.4142748857        2.2067503608        0.5552594138
 C          0.5452459600        3.2404872693        0.0487369508
 C         -0.8512692844        3.6336809522        0.4234143063
 H         -1.0015661836        4.2123796657        1.3223572190
 H         -1.5470096803        3.8665332210       -0.3694759755
 H          1.3610495658        3.5417373282        0.6894643055
 H          0.8056912571        3.2100149944       -0.9989014588
 H         -0.2618827048        1.8197381986        1.5574849165
