  62
        -98.94129768
 C         -1.0045891283       -0.9637441208        0.7723715211
 C         -1.7510770923       -0.8371756739       -0.4220462028
 C         -2.4045371784        0.4633039656       -0.6470461276
 C         -2.2050795100        1.4632032664        0.2270299483
 C         -2.7067106904        2.8842673540        0.1555754325
 C         -4.1677229581        3.1000872317       -0.2641614482
 C         -5.1377937859        1.9870506472        0.1584128835
 H         -4.6539157247        1.3211361927        0.8747116587
 H         -5.9967684715        2.4376352824        0.6589309359
 C         -5.6604601266        1.1694923572       -1.0252817370
 H         -6.5858114223        0.6711391168       -0.7266959381
 H         -5.9056068951        1.8526790009       -1.8413733213
 C         -4.7131542293        0.0891344002       -1.5463273260
 H         -5.1501132654       -0.3325962315       -2.4546710206
 H         -4.6408334990       -0.7230574084       -0.8179151235
 C         -3.2826978588        0.5577737639       -1.8605945819
 H         -2.8523719196       -0.1292230564       -2.5947802006
 H         -3.2763214283        1.5592238688       -2.2850489574
 H         -4.4856722912        4.0468946650        0.1758511621
 H         -4.2197697937        3.2241961401       -1.3450488153
 H         -2.5504205025        3.2931003888        1.1569559235
 H         -2.0521575526        3.4367270287       -0.5262076165
 O         -1.4356753010        1.3130051325        1.3425765834
 C         -0.8183051547        0.1095610190        1.6402835977
 O         -0.1399326233        0.1245744885        2.6875962520
 H          1.4565624230       -0.4270600450        0.2288438434
 C          1.5840623548       -1.3456217948       -0.3254479324
 C          0.7879118363       -2.4403299006       -0.0120230512
 C          0.9757832481       -3.6212499694       -0.7164404329
 C          1.9137478149       -3.6826607524       -1.7336699051
 C          2.6648140727       -2.5739743816       -2.0782966792
 C          2.4943630521       -1.3914101165       -1.3663196697
 N          3.2387741110       -0.2411756177       -1.6668551053
 S          2.5450247495        1.2689412143       -1.4667486359
 O          1.1316818899        1.2674593578       -1.7673029420
 O          3.3605352401        2.1429785980       -2.2864245859
 C          2.8252537581        1.6701059514        0.2439356772
 C          1.8379251955        2.3294192247        0.9474435094
 C          2.0662435824        2.6667538267        2.2714707416
 C          3.2765802906        2.3440963841        2.8640847821
 C          4.2623576692        1.6885969017        2.1418194800
 C          4.0393561808        1.3481287980        0.8176232534
 H          4.7791449517        0.8339881092        0.2270983257
 H          5.2014208971        1.4381650471        2.6086597247
 H          3.4485301237        2.6025317365        3.8970289355
 H          1.2926629468        3.1642305430        2.8338010094
 H          0.9018515854        2.5452725588        0.4553863578
 H          3.8034840103       -0.2962964262       -2.5018373955
 H          3.3725508638       -2.6171150070       -2.8919945706
 H          2.0470603747       -4.6037524108       -2.2806200238
 H          0.3790406352       -4.4873872645       -0.4822134418
 C         -0.2495537576       -2.2486733823        1.0685960248
 H          0.2745537644       -2.0803562149        2.0208491683
 C         -1.1950505974       -3.4191341776        1.2266677833
 C         -0.8032136833       -4.5916070836        2.0736142297
 C         -1.8578233733       -3.6407486218        2.5519375671
 H         -2.8855457403       -3.9712956973        2.5653580184
 H         -1.6086916331       -2.9578750265        3.3512985819
 H          0.1623982451       -4.5596372670        2.5550329225
 H         -1.1092661685       -5.5786307073        1.7614057615
 H         -1.7839526539       -3.6022691570        0.3356111470
 O         -1.8670866550       -1.7624911176       -1.2679824433
