  62
        -98.93184490
 C          2.4920435125        1.3786169501       -0.0785586823
 C          2.4502156782        0.0212143569       -0.4682322943
 C          3.7063033081       -0.7426951370       -0.3309959122
 C          4.8049619524       -0.1181342877        0.1301289561
 C          6.1869503930       -0.6777715654        0.3552689064
 C          6.7520059095       -1.5805877951       -0.7521376606
 C          6.8509940948       -3.0515328126       -0.3449174997
 H          7.6151796950       -3.5338674685       -0.9584575258
 H          7.1861839058       -3.1032886285        0.6930556225
 C          5.5605785113       -3.8545626565       -0.4992985048
 H          5.3600910782       -4.0157717568       -1.5607444085
 H          5.7254467476       -4.8355556971       -0.0474840884
 C          4.3178921759       -3.2261388172        0.1352285256
 H          4.5617995890       -2.7862843729        1.1016090553
 H          3.5982586956       -4.0258719002        0.3239187843
 C          3.6297278099       -2.1832380921       -0.7582279125
 H          4.0023027613       -2.2671464536       -1.7834711640
 H          2.5571877431       -2.3967181388       -0.8104986318
 H          7.7573209400       -1.2282549932       -0.9883735310
 H          6.1532311967       -1.4773349392       -1.6557179098
 H          6.1937753024       -1.2116319540        1.3087775658
 H          6.8282334833        0.1970429410        0.4845275750
 O          4.7940835084        1.1948015286        0.5013275211
 C          3.6528008593        1.9690310023        0.4179862153
 O          3.7951509411        3.1453528558        0.8084820773
 O          1.4120323310       -0.5359902662       -0.9145960341
 C          1.2459473248        2.2402382296       -0.1781549210
 C          0.1454251076        1.6404044423        0.6634965799
 C          0.4077933583        1.3688790926        2.0041608742
 C         -0.5610731081        0.8103725729        2.8142130727
 C         -1.8163531964        0.5154732610        2.3100910752
 C         -2.0897289478        0.7832144860        0.9766453091
 C         -1.1114346435        1.3457075587        0.1629325937
 H         -1.3371819621        1.5429982277       -0.8733043800
 N         -3.3703261443        0.5243749860        0.4528666738
 S         -4.1700430906       -0.8888699716        0.9150573584
 O         -4.6680202010       -0.7144412255        2.2568803235
 O         -3.3293701969       -2.0453219746        0.6985614245
 C         -5.5323821131       -0.8781511977       -0.2335555333
 C         -6.6068023570       -0.0486197871        0.0270401872
 C         -7.6614563628       -0.0172957547       -0.8710542265
 C         -7.6244761680       -0.8109998465       -2.0081097932
 C         -6.5398281334       -1.6388340508       -2.2554859587
 C         -5.4805091148       -1.6738329244       -1.3619641500
 H         -4.6202431618       -2.3071542939       -1.5099693877
 H         -6.5149301346       -2.2565112948       -3.1388505089
 H         -8.4473742651       -0.7865422764       -2.7049517003
 H         -8.5077071957        0.6231812716       -0.6817541854
 H         -6.5955563542        0.5424066127        0.9277210087
 H         -3.3905706407        0.6251393148       -0.5532945287
 H         -2.5773769647        0.0719359723        2.9310504262
 H         -0.3401837717        0.5997266204        3.8502486363
 H          1.3891683080        1.5958824917        2.3994145806
 H          1.5150087708        3.2116685970        0.2613545667
 C          0.8705109918        2.4501032681       -1.6299088281
 C          0.1007382017        3.6684477191       -2.0405959889
 C          1.5497694935        3.5406504366       -2.4003943601
 H          1.8130397477        3.3565090833       -3.4311633431
 H          2.2675806490        4.1487364766       -1.8691898081
 H         -0.6306321617        3.5763827652       -2.8293928144
 H         -0.1688047854        4.3722783938       -1.2678598999
 H          0.6772237458        1.5186027626       -2.1496174897
