  62
        -98.94564831
 C          1.0850675551        1.4548265745        0.7486857611
 C          1.9840455433        1.4556192406       -0.3446425547
 C          3.0000079366        0.3931248589       -0.3368846113
 C          3.0004783419       -0.5141230652        0.6566588639
 C          3.9563180636       -1.6667339696        0.7603932449
 C          3.4077031343       -2.9228523556        0.0700520425
 C          2.8669885324       -2.6739071246       -1.3373577398
 H          2.5316238572       -3.6355142218       -1.7309759636
 H          1.9884924450       -2.0274032956       -1.2731098251
 C          3.8832330669       -2.0576407533       -2.3086972141
 H          3.8195237293       -2.5839300267       -3.2634401216
 H          4.8949930363       -2.2009208792       -1.9272062471
 C          3.6606502800       -0.5735394404       -2.6038418989
 H          2.6202022839       -0.4076451658       -2.8949612547
 H          4.2865934979       -0.2986957774       -3.4571614693
 C          3.9990653044        0.3898243741       -1.4595258610
 H          5.0021649088        0.1775560202       -1.0837854842
 H          3.9924416073        1.4046973722       -1.8679023907
 H          4.2042203412       -3.6680078466        0.0292851372
 H          2.5947836513       -3.3205939381        0.6787613842
 H          4.9064310260       -1.3793207705        0.3136320621
 H          4.1155002799       -1.8847442011        1.8177253063
 O          2.0993248340       -0.5010615245        1.6727028680
 C          1.1228280481        0.4787028137        1.7445880719
 O          0.3610119044        0.3758470632        2.7270889319
 H         -1.3177047278        0.2771564356        0.2701864360
 C         -1.5399986206        1.0392203253       -0.4635138625
 C         -0.9555266753        2.2937056701       -0.3340658022
 C         -1.2501874886        3.2663114654       -1.2791506664
 C         -2.0994462698        2.9775511347       -2.3339584882
 C         -2.6847551826        1.7308581246       -2.4545516744
 C         -2.4050014577        0.7531615785       -1.5057103176
 N         -2.9711662815       -0.5286780806       -1.5903695737
 S         -3.5248901906       -1.2616111295       -0.1889026575
 O         -4.4921919282       -2.2346111866       -0.6533005090
 O         -4.0160027100       -0.2856505813        0.7558237462
 C         -2.1256965051       -2.1361370249        0.4763009804
 C         -1.4361264715       -3.0016708966       -0.3500861557
 C         -0.3915313884       -3.7404839647        0.1802458614
 C         -0.0587805296       -3.6044322456        1.5200799391
 C         -0.7542904686       -2.7250603815        2.3338383424
 C         -1.8010235812       -1.9844805955        1.8090357285
 H         -2.3582536378       -1.2826094916        2.4091919042
 H         -0.4830491384       -2.5999972402        3.3695859255
 H          0.7455642208       -4.1897796873        1.9382743097
 H          0.1584344630       -4.4213313781       -0.4495664728
 H         -1.7287922467       -3.0850994087       -1.3835921022
 H         -3.6172337779       -0.6571464411       -2.3559631891
 H         -3.3512594695        1.5108785715       -3.2748137633
 H         -2.3138716094        3.7381202662       -3.0694788643
 H         -0.8078933269        4.2453261490       -1.1981695717
 C         -0.0155562563        2.4991465891        0.8294532746
 H         -0.5745381652        2.2827376745        1.7517441994
 C          0.5588930028        3.8957631098        0.9229170108
 C         -0.2553768386        4.9976033449        1.5294068929
 C          0.9228266858        4.4413033402        2.2696570076
 H          1.8115269555        5.0480837561        2.3572913456
 H          0.7382145303        3.8115390987        3.1280679256
 H         -1.2431044794        4.7488936576        1.8879700187
 H         -0.1752666570        5.9897926200        1.1117664632
 H          1.2125163325        4.1378238253        0.0935499932
 O          1.9509408567        2.3009324012       -1.2765144587
