  62
        -98.94160934
 C         -2.4339505209       -1.0304769356        0.2788975310
 C         -2.4954927748       -0.0550495628        1.3077171943
 C         -2.9397095245        1.2870834284        0.9168106217
 C         -3.2587239760        1.5219221683       -0.3681701800
 C         -3.6941205471        2.8487982172       -0.9177020379
 C         -2.5017906407        3.6586441278       -1.4444955112
 C         -1.3290462581        3.7527750750       -0.4676394982
 H         -0.8676484060        2.7674395216       -0.3591102940
 H         -0.5765306897        4.3959818853       -0.9308644437
 C         -1.6938163631        4.3093315093        0.9159008702
 H         -0.9257791990        5.0266737054        1.2127415597
 H         -2.6395367000        4.8502598446        0.8599523107
 C         -1.7726011215        3.2585211889        2.0250578910
 H         -1.7825445061        3.7785824780        2.9867477040
 H         -0.8754271705        2.6346026972        1.9950111564
 C         -2.9993103060        2.3383721628        1.9881147298
 H         -3.9075480941        2.9371248282        1.8937643041
 H         -3.0394812252        1.7963242222        2.9374241594
 H         -2.8520890331        4.6628783521       -1.6925443107
 H         -2.1387160586        3.1886106151       -2.3618834619
 H         -4.3890513601        2.6681091700       -1.7399943694
 H         -4.2076329230        3.4064094072       -0.1366574405
 O         -3.1900177766        0.5670701575       -1.3282956126
 C         -2.7371558049       -0.7168231921       -1.0455732352
 O         -2.6709120101       -1.4501162597       -2.0517948443
 O         -2.1984806921       -0.3069450512        2.5064285602
 C         -1.9113750328       -2.3989217643        0.6861627340
 C         -0.4051700838       -2.3695172109        0.6317188887
 C          0.3786193696       -2.7651538616        1.7084114311
 C          1.7571798726       -2.6414727896        1.6615347628
 C          2.3786227318       -2.0985908142        0.5501330418
 C          1.6015360695       -1.7066035330       -0.5309886774
 C          0.2269858441       -1.8608553944       -0.4946270911
 H         -0.3657258327       -1.5453757186       -1.3419863514
 N          2.2221383806       -1.0558226523       -1.6347878072
 S          2.2717855368        0.6125477146       -1.3554021804
 O          1.0564119422        1.0804569758       -0.7258402519
 O          2.6065039773        1.2188330142       -2.6257733098
 C          3.6413188812        0.7532925331       -0.2309532213
 C          3.4004763926        0.9671601765        1.1115060584
 C          4.4772856419        1.0251424074        1.9826765402
 C          5.7666397737        0.8665803528        1.4976826416
 C          5.9911059406        0.6528244280        0.1455200549
 C          4.9192211930        0.5931929843       -0.7305007438
 H          5.0430327512        0.4321460448       -1.7884578246
 H          6.9953256573        0.5302379464       -0.2269142743
 H          6.6017029939        0.9096721179        2.1789441206
 H          4.3036574388        1.1896672187        3.0339170856
 H          2.3801011503        1.0788348191        1.4434287682
 H          1.7124571037       -1.2042242359       -2.4968937482
 H          3.4485281566       -1.9736457323        0.5116361863
 H          2.3518649407       -2.9510252754        2.5068955122
 H         -0.1024887251       -3.1465418885        2.5970253994
 H         -2.2012762387       -2.5121964623        1.7429723598
 C         -2.5251389984       -3.5562495755       -0.0852309243
 C         -1.7635832355       -4.3793338823       -1.0765821937
 C         -2.1328119023       -4.9647738446        0.2513069235
 H         -2.9019414738       -5.7208198778        0.2894938573
 H         -1.3408053545       -5.0993744908        0.9723768937
 H         -2.2894692416       -4.7085305434       -1.9596658978
 H         -0.7283939581       -4.1342840026       -1.2566487594
 H         -3.5712647223       -3.3813715315       -0.3132623680
