  62
        -98.94421792
 C          1.9828497216       -1.2970689006       -0.0186249907
 C          2.3189337348       -0.3198445312        0.9493566916
 C          3.7316136493        0.0892747127        0.9828840918
 C          4.6059892431       -0.4730722227        0.1294467373
 C          6.0586991819       -0.1119728141        0.0244885484
 C          6.2824279088        0.9984688043       -1.0114920621
 C          5.3468719501        2.1961355580       -0.8456447844
 H          4.3216073349        1.8808811880       -1.0538377490
 H          5.6177636680        2.9284509596       -1.6093411828
 C          5.4013535753        2.8578419478        0.5384567245
 H          5.4357787595        3.9414353638        0.4070109221
 H          6.3171293860        2.5651876715        1.0535180913
 C          4.1979903151        2.5565098391        1.4338338796
 H          3.2737823189        2.7599379371        0.8864382442
 H          4.2296446467        3.2403318794        2.2864189601
 C          4.1234477283        1.1302684941        1.9935200363
 H          3.3415882598        1.1149781119        2.7585139986
 H          5.0723812396        0.8708937814        2.4672514683
 H          6.1271033758        0.5789685417       -2.0081333817
 H          7.3193061540        1.3321999692       -0.9413015339
 H          6.6122768816       -1.0005197176       -0.2837417479
 H          6.4196762209        0.2086345386        0.9997515864
 O          4.2482875521       -1.4151451901       -0.7796085451
 C          2.9344420597       -1.8342746188       -0.8899647175
 O          2.7402264671       -2.6820525412       -1.7835868988
 O          1.4958377507        0.1882144665        1.7555666689
 C          0.5538575044       -1.7894273411       -0.1896617229
 C         -0.2728306808       -0.6679705931       -0.7689491175
 C         -0.2832780806       -0.4658861687       -2.1458914288
 C         -1.0107191438        0.5693508219       -2.7040556058
 C         -1.7374998102        1.4302583050       -1.8995351116
 C         -1.7233318238        1.2422503030       -0.5245561608
 C         -1.0061017817        0.1927648134        0.0333241237
 H         -0.9935814212        0.0673622936        1.1043241835
 N         -2.4679363828        2.1147409686        0.3008421980
 S         -4.1305009550        2.0251028558        0.1145557101
 O         -4.4880126792        2.5675336411       -1.1713057818
 O         -4.6946597377        2.6864373291        1.2689976543
 C         -4.4821435775        0.2774092485        0.1631489092
 C         -4.4605359828       -0.4484438894       -1.0107621805
 C         -4.6426985159       -1.8207377048       -0.9511162205
 C         -4.8409912582       -2.4398763619        0.2731655543
 C         -4.8630105836       -1.6957696025        1.4428534864
 C         -4.6747615364       -0.3243364594        1.3906869990
 H         -4.6873690877        0.2913035589        2.2759681296
 H         -5.0217497788       -2.1799835177        2.3931927653
 H         -4.9790549186       -3.5087366495        0.3164573871
 H         -4.6255716876       -2.4016840876       -1.8592317477
 H         -4.3081295587        0.0697645707       -1.9431480343
 H         -2.2316606293        2.0188785265        1.2788193060
 H         -2.3195068233        2.2373314413       -2.3146473764
 H         -1.0111888639        0.7098140251       -3.7744611924
 H          0.2954346981       -1.1295537535       -2.7734842976
 H          0.6034850942       -2.5919890673       -0.9370567306
 C         -0.0196363237       -2.3537167750        1.0942502452
 C         -1.3148531201       -3.1055634161        1.0404478389
 C         -0.0334650407       -3.8365642208        1.3037154971
 H          0.1500336252       -4.2169230474        2.2974280037
 H          0.3736738551       -4.4564427325        0.5183357335
 H         -2.0164180085       -2.9842409550        1.8512564290
 H         -1.7798099919       -3.2235138733        0.0734438474
 H          0.1717649176       -1.7346718945        1.9613823194
