  62
        -98.94184996
 C          1.2020778872        0.9164327560        0.3802106074
 C          2.0785223563        0.6647698409       -0.6985801360
 C          3.1097016278       -0.3715367712       -0.4882762172
 C          3.1222642426       -1.0483802199        0.6750924337
 C          4.0947322997       -2.1073299871        1.1209815075
 C          5.4500471655       -1.5217536986        1.5537276929
 C          5.9926401414       -0.4149164887        0.6527328208
 H          5.2540404643        0.3859018521        0.5851410977
 H          6.8799431108        0.0015844545        1.1366792977
 C          6.3923217274       -0.8565219643       -0.7529538897
 H          7.1779814162       -1.6120375162       -0.6805875374
 H          6.8144832137        0.0146710371       -1.2602258766
 C          5.2654240966       -1.4146661164       -1.6236459203
 H          5.0070941537       -2.4271855416       -1.3250596948
 H          5.6469012966       -1.4813522235       -2.6469209656
 C          4.0127899612       -0.5455303341       -1.6856884710
 H          4.2951903934        0.4668649410       -1.9962235425
 H          3.3669849832       -0.9233598657       -2.4882233562
 H          6.1746436665       -2.3355317181        1.6124833252
 H          5.3298023413       -1.1037858059        2.5561081529
 H          4.2206661253       -2.8481553590        0.3367189929
 H          3.6409860388       -2.6093567847        1.9786054547
 O          2.2208310438       -0.8067297971        1.6697789115
 C          1.2414591338        0.1581398549        1.5488515388
 O          0.4752478001        0.2475940954        2.5312720428
 O          2.0180358471        1.2811149743       -1.7954167373
 C          0.1190849673        1.9710009882        0.2536961540
 C         -0.8547651477        1.5938998790       -0.8370071299
 C         -1.4041572299        2.5064285060       -1.7286908975
 C         -2.3204707689        2.0887126774       -2.6787688011
 C         -2.7328848169        0.7697845235       -2.7408468142
 C         -2.1938727326       -0.1488812757       -1.8477210035
 C         -1.2555417709        0.2676486093       -0.9181500212
 H         -0.8208710710       -0.4618468814       -0.2520317484
 N         -2.5904095787       -1.4957763740       -1.8502331658
 S         -2.7565762124       -2.2776191825       -0.3788482750
 O         -1.4652267628       -2.6544157906        0.1399927004
 O         -3.6629356356       -3.3721157505       -0.6576907735
 C         -3.5605174459       -1.0834288495        0.6759853599
 C         -4.8718446202       -0.7652130309        0.3757851136
 C         -5.5217029602        0.1967992478        1.1301320262
 C         -4.8502829233        0.8279672285        2.1667369731
 C         -3.5381729412        0.4928764997        2.4596460011
 C         -2.8821658672       -0.4719560374        1.7099472501
 H         -1.8577875371       -0.7386794357        1.9208546146
 H         -3.0072674685        0.9772825845        3.2639295489
 H         -5.3514645452        1.5829745219        2.7516345709
 H         -6.5444449170        0.4543232702        0.9071614686
 H         -5.3623582170       -1.2858253813       -0.4306283199
 H         -3.3457416980       -1.7164398001       -2.4826023836
 H         -3.4562102006        0.4500716026       -3.4749424080
 H         -2.7302448796        2.8049075281       -3.3744666828
 H         -1.1096774113        3.5420160269       -1.6851332336
 H         -0.4326476264        1.9495009917        1.2060801576
 C          0.7280692673        3.3460173536        0.0753386801
 C          0.0238935497        4.5574138817        0.6063072143
 C          1.2653957484        4.0573043947        1.2797118961
 H          2.1765251879        4.6276160329        1.1786730673
 H          1.1674106622        3.5588567768        2.2335365628
 H          0.0845953880        5.4769150191        0.0439412040
 H         -0.9189189281        4.4073847318        1.1101204904
 H          1.2847359388        3.4371109656       -0.8498992394
