  62
        -98.94127318
 C         -2.5053671993       -1.3177188199        0.0494604007
 C         -3.0767218594       -0.5230042097        1.0776857705
 C         -3.8160784296        0.6712658600        0.6519330702
 C         -3.9209470498        0.9422572696       -0.6612538699
 C         -4.5993550601        2.1496060593       -1.2391455702
 C         -3.6081953203        3.3062844794       -1.4289343707
 C         -2.7543094903        3.5992619600       -0.1948152208
 H         -2.0835740901        2.7553561302       -0.0123362606
 H         -2.1209966005        4.4567554400       -0.4338753911
 C         -3.5588497903        3.8953995402        1.0788323692
 H         -4.5838477303        4.1595108499        0.8159574891
 H         -3.1169509904        4.7614892604        1.5757211489
 C         -3.5734670600        2.7559978905        2.0997361095
 H         -2.5495074299        2.4212813808        2.2864839895
 H         -3.9671061100        3.1484187207        3.0411153894
 C         -4.4203550997        1.5334655502        1.7238092499
 H         -4.4983514795        0.8977024305        2.6105025401
 H         -5.4246091298        1.8544755099        1.4399884699
 H         -4.1700690305        4.2006169292       -1.7047038709
 H         -2.9373803903        3.0581637793       -2.2551144006
 H         -5.0167105501        1.8781508389       -2.2103227501
 H         -5.4082291001        2.4554548793       -0.5785343903
 O         -3.3723764897        0.1557274394       -1.6197660197
 C         -2.6310069394       -0.9755394303       -1.2968715794
 O         -2.1616704394       -1.5590106606       -2.2929818993
 H         -0.0911527394       -1.3340017798       -1.2868967495
 C          0.4195467407       -1.5317656194       -0.3550906394
 C         -0.2635557591       -2.1687579993        0.6725826508
 C          0.4077466311       -2.4115144888        1.8643636108
 C          1.7276937710       -2.0236225185        2.0206223606
 C          2.4011931608       -1.3831335786        0.9958971604
 C          1.7373982307       -1.1339310491       -0.1982732097
 N          2.4110761605       -0.4579976493       -1.2407372999
 S          2.7961672002        1.1461481509       -0.8929341704
 O          1.8582442701        1.7179134710        0.0474481695
 O          2.9066252999        1.8071525005       -2.1750526606
 C          4.4115194002        1.0280400814       -0.1549913205
 C          4.6122199702        1.4574459419        1.1420057994
 C          5.8791501103        1.3479435723        1.6943790593
 C          6.9157493704        0.8141064023        0.9440436994
 C          6.6975242804        0.3894549418       -0.3584276805
 C          5.4340232603        0.4968748714       -0.9169597404
 H          5.2200108703        0.1833034910       -1.9250583303
 H          7.5060654004       -0.0249937982       -0.9386515604
 H          7.8997978304        0.7284600526        1.3771248394
 H          6.0506837103        1.6777453526        2.7064006592
 H          3.7738424902        1.8595576419        1.6880213493
 H          1.8981577704       -0.4896665597       -2.1120198399
 H          3.4267195807       -1.0727306184        1.1129254102
 H          2.2359187311       -2.2168849881        2.9527716106
 H         -0.1187018188       -2.8882688386        2.6781208910
 C         -1.7152536190       -2.5358631996        0.4983739710
 H         -2.1165499389       -2.7753678994        1.4957840511
 C         -1.9275627088       -3.7578750899       -0.3837949486
 C         -0.8602549388       -4.3539069000       -1.2474445085
 C         -1.2986448585       -5.0665227597       -0.0056742482
 H         -1.8825272483       -5.9690693598       -0.1020458479
 H         -0.6204743685       -5.0637459693        0.8343246217
 H          0.1138602012       -3.8907426098       -1.2524515287
 H         -1.1584233087       -4.7450664803       -2.2081952284
 H         -2.9377779188       -3.7990853803       -0.7781248785
 O         -2.9765900692       -0.8095282993        2.3005975806
