  62
        -98.94469488
 C         -2.0126581064       -0.7529312458        0.5609843098
 C         -1.9557805824       -0.0498749643       -0.6665152253
 C         -1.9969157306        1.4127779110       -0.5647310847
 C         -2.0230056929        1.9984237260        0.6457015149
 C         -2.0136577436        3.4793858008        0.9135120191
 C         -3.3969803371        4.1403520126        0.8364468133
 C         -3.9709131370        4.2861314430       -0.5733795629
 H         -4.8327498349        4.9523070935       -0.5005828624
 H         -3.2347722440        4.7725005373       -1.2139548826
 C         -4.4199872671        2.9652473903       -1.2134947407
 H         -5.4041937974        3.0969757280       -1.6683092795
 H         -4.5233318478        2.2018886794       -0.4389800989
 C         -3.4845442840        2.4386687747       -2.3019465158
 H         -3.8788394350        1.4850149877       -2.6614670186
 H         -3.4696792493        3.1362837113       -3.1421423142
 C         -2.0413619640        2.2066759946       -1.8348092191
 H         -1.5150101090        1.6295711807       -2.5991237969
 H         -1.5263610555        3.1584745113       -1.7046627952
 H         -3.3053003128        5.1371150688        1.2739461896
 H         -4.0907005349        3.5673462188        1.4558805449
 H         -1.6238532836        3.6073437139        1.9259556155
 H         -1.3315696574        3.9685316469        0.2171331689
 O         -2.0427958650        1.2868461265        1.8057765605
 C         -2.0413482714       -0.0984274623        1.7905431724
 O         -2.0706667772       -0.6256140576        2.9233804339
 H          0.4641219748       -1.1749718197        0.9460799793
 C          0.5155015930       -1.9767552238        0.2224573536
 C         -0.6352421275       -2.6851541545       -0.0996698661
 C         -0.5393610947       -3.7251499088       -1.0147879021
 C          0.6733895549       -4.0160453251       -1.6161902937
 C          1.8041694867       -3.2733474460       -1.3320843281
 C          1.7221912771       -2.2440036855       -0.4001539138
 N          2.8528623198       -1.4776391794       -0.0647396908
 S          2.6201885212        0.1449417534        0.3452960652
 O          2.2608973397        0.2229817139        1.7405778454
 O          1.7215135269        0.7839840510       -0.5890006808
 C          4.2805572596        0.7598698212        0.1264696573
 C          4.6048690356        1.4520057312       -1.0247824549
 C          5.9070527311        1.8958675320       -1.1958556199
 C          6.8580031123        1.6380022958       -0.2201244121
 C          6.5173969655        0.9422123346        0.9306121154
 C          5.2170966790        0.4975318075        1.1088307056
 H          4.9018703853       -0.0377581146        1.9892170311
 H          7.2585299043        0.7458465726        1.6883495630
 H          7.8704602959        1.9837868620       -0.3560519677
 H          6.1734082467        2.4397200553       -2.0877626569
 H          3.8294893837        1.6332883649       -1.7518996039
 H          3.6080420080       -1.5846210606       -0.7287677978
 H          2.7416392180       -3.4845652377       -1.8234682249
 H          0.7333477584       -4.8215116168       -2.3323659665
 H         -1.4163439461       -4.2978102378       -1.2686564367
 C         -1.9266007640       -2.2688096513        0.5642330998
 H         -1.8846052379       -2.5709336474        1.6216063566
 C         -3.1579216098       -2.8772695392       -0.0737389846
 C         -3.6510813461       -4.2228377140        0.3640441421
 C         -4.4127002610       -2.9876812578        0.7373290826
 H         -5.3581461318       -2.7955937398        0.2527930618
 H         -4.3697857049       -2.6469339374        1.7619219239
 H         -3.0983336408       -4.7290064321        1.1410041459
 H         -4.0791105079       -4.8813739636       -0.3765675158
 H         -3.2585805031       -2.6060796714       -1.1183376154
 O         -1.8770361715       -0.6141191216       -1.7894245865
