  62
        -98.93870678
 C         -2.5370865122       -1.3104971781        0.1625663846
 C         -2.5998646576       -0.3385611702       -0.8626211435
 C         -3.4112475403        0.8619258543       -0.5859845650
 C         -4.0306586628        0.9933761199        0.6010805680
 C         -4.9306503708        2.0850213232        1.1404576933
 C         -4.9629811277        3.4655679474        0.4890714053
 C         -3.6595332961        4.2568659932        0.5916156578
 H         -3.7775151846        5.1816908364        0.0226592373
 H         -3.4962497321        4.5280800479        1.6375736945
 C         -2.4056087056        3.5341278605        0.1042317069
 H         -1.5580158770        4.2169085666        0.2130189745
 H         -2.1993621970        2.6746128624        0.7463510222
 C         -2.4395502701        3.0685839180       -1.3505198193
 H         -1.4309378537        2.7283663092       -1.6046376936
 H         -2.6804585869        3.9117310357       -2.0011167234
 C         -3.4127915528        1.9155469838       -1.6556683061
 H         -4.4208478986        2.2833998000       -1.8302384172
 H         -3.0771645502        1.4260626396       -2.5744071747
 H         -5.2767266977        3.3877792660       -0.5476694920
 H         -5.7353710604        4.0361288853        1.0119123588
 H         -5.9455002341        1.6724455542        1.1245256830
 H         -4.6583370586        2.1944801243        2.1948639842
 O         -3.9538675633        0.0224063863        1.5565067647
 C         -3.2081712344       -1.1255628953        1.3747114403
 O         -3.2247670654       -1.9025366327        2.3498429796
 H         -0.0009556292       -1.1729257471       -1.4960599692
 C          0.4701795171       -1.4983845305       -0.5805885349
 C         -0.2591390188       -2.2493997079        0.3304548675
 C          0.3532710991       -2.6274960404        1.5197454587
 C          1.6603346204       -2.2595396409        1.7874750634
 C          2.3787879192       -1.4995557324        0.8815256817
 C          1.7716627100       -1.1094080355       -0.3045258838
 N          2.4838569784       -0.3043251493       -1.2184698634
 S          2.9835395997        1.1897589128       -0.6246498319
 O          2.1274102726        1.6476226832        0.4463868875
 O          3.0869177757        2.0524352718       -1.7817116846
 C          4.6191694773        0.8609493925       -0.0020558412
 C          4.9177031183        1.1136272290        1.3223222505
 C          6.1995131676        0.8524435094        1.7815720223
 C          7.1543254529        0.3466741335        0.9127481566
 C          6.8387234598        0.1001501373       -0.4153222776
 C          5.5597264088        0.3598412043       -0.8808507015
 H          5.2729381051        0.1870451992       -1.9046402601
 H          7.5840697796       -0.2929326149       -1.0877639906
 H          8.1503942958        0.1434766056        1.2730882749
 H          6.4464253636        1.0434339335        2.8135884383
 H          4.1403976755        1.5012565665        1.9615489826
 H          1.9800905219       -0.1681887389       -2.0846895685
 H          3.3927024541       -1.1981251992        1.0894273015
 H          2.1220842199       -2.5610058433        2.7153708993
 H         -0.2128448733       -3.1936647035        2.2454028564
 C         -1.7076980044       -2.5838409433        0.0646439694
 H         -2.0589140648       -3.2279292148        0.8815739509
 C         -1.8931273026       -3.3255115891       -1.2437433602
 C         -1.5145842869       -4.7733537014       -1.3132304539
 C         -2.9584831029       -4.3734680615       -1.3450245916
 H         -3.5017149327       -4.4662569557       -2.2734338709
 H         -3.5601552133       -4.5610177890       -0.4674428873
 H         -1.0636136747       -5.1444983540       -2.2205848584
 H         -1.1369215106       -5.2340863682       -0.4129877152
 H         -1.7169483439       -2.7146079696       -2.1187503589
 O         -2.0196254894       -0.4413187245       -1.9778149251
