  62
        -98.94097886
 C         -1.6969231911       -1.4565197519        0.4225871011
 C         -1.8237884873       -0.2805145381        1.2066071844
 C         -3.0738077937        0.4717532304        1.0573873236
 C         -3.9970091140        0.0538562024        0.1722798293
 C         -5.3313404420        0.6982530116       -0.0895195510
 C         -5.2723616665        1.8901535430       -1.0549099273
 C         -4.6628048918        3.1679495088       -0.4767379094
 H         -4.8870191631        3.9745437937       -1.1775350722
 H         -5.1559191796        3.4095537337        0.4654154657
 C         -3.1436085723        3.1080668787       -0.2637733775
 H         -2.6881695551        4.0258126176       -0.6426747138
 H         -2.7303946421        2.2774968492       -0.8413617561
 C         -2.7174020016        2.9593863372        1.1967222548
 H         -1.6263865463        2.9156759722        1.2422161203
 H         -3.0383804873        3.8367542470        1.7626999754
 C         -3.2667632548        1.7052891515        1.8882425923
 H         -2.7189699819        1.5628975187        2.8233919527
 H         -4.3235394821        1.8378693884        2.1212523895
 H         -6.2974666119        2.1103310800       -1.3615519211
 H         -4.7164658599        1.5905616556       -1.9461882056
 H         -5.9659937751       -0.0725267346       -0.5319394903
 H         -5.7768186804        1.0146551299        0.8542653576
 O         -3.8192450758       -1.0500319009       -0.5973698909
 C         -2.6780082165       -1.8387546251       -0.4941816485
 O         -2.6804214586       -2.8178710653       -1.2607135017
 H          2.0577496723       -1.4515433124        1.2247703644
 C          1.8791547958       -1.5021240961        0.1611221999
 C          0.6435594205       -1.9066458557       -0.3215633463
 C          0.4381601388       -1.9358641375       -1.6983602463
 C          1.4559084586       -1.5816135086       -2.5646039288
 C          2.6846852144       -1.1676543697       -2.0785045767
 C          2.8937134914       -1.1195834961       -0.7064185053
 N          4.1189471819       -0.6765126711       -0.1705761020
 S          4.0546384507        0.6206756777        0.8943811979
 O          5.4151242167        1.1073918377        0.9627220422
 O          3.4661261518        0.2043713031        2.1393078324
 C          3.0279848389        1.8007294700        0.0381730345
 C          3.6490919342        2.6593009699       -0.8492414624
 C          2.8745844196        3.5101356447       -1.6196609972
 C          1.4931374412        3.4727648661       -1.5054538462
 C          0.8863821658        2.6038819437       -0.6126095551
 C          1.6546234852        1.7596579611        0.1747340358
 H          1.1963428826        1.0869999294        0.8836866953
 H         -0.1878640322        2.5683843592       -0.5240816511
 H          0.8840932600        4.1234456285       -2.1128796364
 H          3.3462336386        4.1911380025       -2.3095722817
 H          4.7257573796        2.6512280420       -0.9062362513
 H          4.8268686186       -0.5028408234       -0.8710511842
 H          3.4748890471       -0.8816043416       -2.7559920859
 H          1.2878970101       -1.6180147135       -3.6302567352
 H         -0.5251797812       -2.2440590981       -2.0759998662
 C         -0.4467316737       -2.2895318605        0.6449227823
 H         -0.1004202701       -2.0029043014        1.6515358705
 C         -0.7237423369       -3.7870009421        0.6763099682
 C         -0.1966888678       -4.7566264517       -0.3344726853
 C          0.3770390392       -4.7364098691        1.0483381298
 H          0.1547519512       -5.5528401962        1.7186433166
 H          1.3658749643       -4.3196142134        1.1729052108
 H          0.4101249329       -4.3796500568       -1.1419907070
 H         -0.8396169690       -5.5751585908       -0.6199045342
 H         -1.7079826033       -4.0065987589        1.0778292014
 O         -0.9348920215        0.1109733669        2.0107843824
