  62
        -98.93807982
 C          2.5187035326        1.1961559534        0.2423405535
 C          2.6959218751        0.3522108400       -0.8774110124
 C          3.5614724317       -0.8302628906       -0.6873453117
 C          4.1172345875       -1.0400924597        0.5205499286
 C          4.9848739988       -2.1899384249        0.9584228229
 C          4.1790296766       -3.4752053578        1.2101879366
 C          3.1190372515       -3.7877183625        0.1567442770
 H          2.4261751713       -2.9469687528        0.0837470633
 H          2.5455367846       -4.6494190535        0.5088743605
 C          3.6597101434       -4.1218343412       -1.2315575180
 H          2.8051600668       -4.3994471866       -1.8537790906
 H          4.3150408603       -4.9927255355       -1.1595782323
 C          4.4197141189       -2.9997626426       -1.9415670532
 H          4.5319236381       -3.2956976710       -2.9886710161
 H          5.4246785121       -2.8940927181       -1.5419933868
 C          3.7083736288       -1.6500800886       -1.9465896645
 H          2.6930662012       -1.7802685666       -2.3381953725
 H          4.2121426472       -0.9943759702       -2.6670446909
 H          3.6707360458       -3.3712693413        2.1722208021
 H          4.8767500869       -4.3106679757        1.2869573765
 H          5.7723528167       -2.3613869889        0.2307789838
 H          5.4576565187       -1.8875375590        1.8954825819
 O          3.9049263189       -0.2026278468        1.5776262411
 C          3.1086334101        0.9207527777        1.4738041137
 O          2.9981975192        1.5789276192        2.5298473446
 H          0.2268147164        0.3910593996        1.1045262364
 C         -0.3482987441        0.9422864199        0.3691564229
 C          0.2328579323        2.0376258578       -0.2580541088
 C         -0.5243531674        2.7463073497       -1.1814902840
 C         -1.8174436841        2.3512661685       -1.4790242343
 C         -2.3828483708        1.2478501921       -0.8675626905
 C         -1.6394756715        0.5387809318        0.0671363648
 N         -2.2016786877       -0.5916711891        0.6886113848
 S         -3.6896578720       -0.4059971741        1.4473699699
 O         -3.8741293729        0.9452853837        1.9243736942
 O         -3.7381439764       -1.4522306444        2.4455970535
 C         -4.8725467367       -0.7697900538        0.1677565464
 C         -4.7678266294       -1.9793491215       -0.4907570404
 C         -5.6876707185       -2.2828022646       -1.4816763443
 C         -6.6926588021       -1.3787591149       -1.7926653632
 C         -6.7860627024       -0.1701667597       -1.1197266171
 C         -5.8680153583        0.1405359107       -0.1284759001
 H         -5.8966194216        1.0701891689        0.4170862223
 H         -7.5681756914        0.5309364661       -1.3628722840
 H         -7.4072098493       -1.6180063830       -2.5643366711
 H         -5.6177849854       -3.2213414060       -2.0076135297
 H         -3.9741284542       -2.6543336160       -0.2168463790
 H         -1.5586017097       -1.0778518892        1.2968941701
 H         -3.3861112051        0.9324122267       -1.1032633708
 H         -2.3918056896        2.9091339710       -2.2026532582
 H         -0.1008491181        3.6076892010       -1.6711574052
 C          1.6392680635        2.4271590044        0.1313472148
 H          1.5992959597        2.8629917426        1.1413244473
 C          2.2687163307        3.4346389122       -0.8087777424
 C          2.0630746000        4.9031680651       -0.5943070781
 C          3.3958203580        4.2828661608       -0.3041196239
 H          4.2210352316        4.4935435900       -0.9675840970
 H          3.6885030092        4.1531026709        0.7280998904
 H          1.4535928221        5.2064220098        0.2437099530
 H          1.9765441159        5.5438968710       -1.4588862191
 H          2.3351304880        3.0666886900       -1.8260320482
 O          2.1514402889        0.5634409996       -1.9921635010
