  62
        -98.94198277
 C          1.5048864841        1.5208777681        0.1958614918
 C          2.4117528889        0.8745111410        1.0752010170
 C          3.2471842765       -0.1770894819        0.4864581065
 C          3.1027451296       -0.4926904723       -0.8131617397
 C          3.9449522333       -1.4730368855       -1.5843172807
 C          3.4938992013       -2.9342563317       -1.4662947908
 C          3.7387204927       -3.5839186068       -0.1041108461
 H          3.5563158785       -4.6540164155       -0.2210226074
 H          4.7873244556       -3.4631206417        0.1699024406
 C          2.8455627793       -3.0488696499        1.0242713587
 H          1.9972496970       -2.5097046912        0.5967672132
 H          2.4378560026       -3.8860212173        1.5948225865
 C          3.5635077670       -2.1333241272        2.0160966941
 H          4.3361049142       -2.6966108574        2.5442238236
 H          2.8351436072       -1.7887840522        2.7547744718
 C          4.2122193450       -0.8972405112        1.3786412786
 H          4.5051226394       -0.2115011800        2.1775620040
 H          5.1040595189       -1.1855961503        0.8221115414
 H          4.0407245230       -3.5049336637       -2.2205942850
 H          2.4325216080       -2.9876956980       -1.7133849150
 H          4.9839484099       -1.3850221216       -1.2644972453
 H          3.8801195189       -1.1782469099       -2.6342314125
 O          2.1638822712        0.0907108570       -1.6022455056
 C          1.3291941928        1.0965811200       -1.1223137942
 O          0.5038248892        1.4995698727       -1.9609181788
 O          2.5267430741        1.1742559674        2.2936071081
 C          0.6896967958        2.6723299321        0.7571216707
 C         -0.7626532913        2.5337454963        0.3819320554
 C         -1.3949781434        3.3669330257       -0.5315306320
 C         -2.7243000095        3.1680232595       -0.8599442951
 C         -3.4539528604        2.1476007889       -0.2780522431
 C         -2.8312794908        1.3087924984        0.6370643674
 C         -1.4968589355        1.5056014457        0.9612318038
 H         -1.0108155156        0.8452658968        1.6694599851
 N         -3.5796159092        0.2742273954        1.2406489349
 S         -4.1205250700       -0.9815430307        0.2788508057
 O         -4.7388365771       -0.4363585721       -0.9011080782
 O         -4.9611283577       -1.7919829782        1.1300775591
 C         -2.6668747087       -1.9194277844       -0.1629957158
 C         -2.5018659979       -3.1794390770        0.3786800080
 C         -1.3745921548       -3.9118983534        0.0464126288
 C         -0.4302723852       -3.3701802885       -0.8120063949
 C         -0.6023727244       -2.0980192365       -1.3361735536
 C         -1.7319242667       -1.3618598587       -1.0129588874
 H         -1.8819921018       -0.3708140176       -1.4129704636
 H          0.1350568684       -1.6610945936       -1.9926084201
 H          0.4436603711       -3.9464575555       -1.0729747704
 H         -1.2339032644       -4.8997574036        0.4543209024
 H         -3.2642660024       -3.5593906378        1.0393906589
 H         -3.1428680267       -0.1080244383        2.0679432331
 H         -4.4859963582        1.9733584962       -0.5341293740
 H         -3.1999079739        3.8173670534       -1.5793042486
 H         -0.8368920852        4.1556604884       -1.0083764018
 H          0.7709640985        2.5568883343        1.8506898673
 C          1.2581506212        4.0449713328        0.4252046992
 C          2.7376226741        4.2581181656        0.3173884289
 C          1.8742922683        4.3677285665       -0.9017692347
 H          1.7021820945        5.3486147192       -1.3204067819
 H          1.9213383531        3.5824377821       -1.6401510549
 H          3.1588010693        5.1602956138        0.7346824521
 H          3.3761642348        3.3922624670        0.4157173818
 H          0.6922836263        4.8389655993        0.9030803195
