  62
        -98.94702583
 C         -2.2806271204       -0.5276117096       -0.4749008190
 C         -1.4515892704        0.3995350696       -1.1503939601
 C         -1.7331822100        1.8214652399       -0.9030332513
 C         -2.7156402895        2.1670058209       -0.0534532712
 C         -3.0746189490        3.5740423113        0.3255199977
 C         -2.3100332484        4.0337147722        1.5740726870
 C         -0.8025239385        3.7857966618        1.5090853466
 H         -0.3661103481        4.1989536825        2.4217851961
 H         -0.6056305088        2.7105919818        1.5259274375
 C         -0.1073609488        4.4014831106        0.2868378358
 H         -0.7387549588        5.1758489903       -0.1517206246
 H          0.8161264514        4.8815256606        0.6177957550
 C          0.2802033905        3.3826060895       -0.7862775934
 H          0.7958186805        2.5461844798       -0.3077915929
 H          0.9847808304        3.8587147787       -1.4739105341
 C         -0.8800147700        2.8278518191       -1.6233644025
 H         -1.4910938199        3.6520351489       -1.9979129330
 H         -0.4515741804        2.3010468282       -2.4809112122
 H         -2.4973621481        5.0998343924        1.7181428361
 H         -2.7063451682        3.4988305431        2.4404923876
 H         -2.8558771192        4.2360486706       -0.5102233730
 H         -4.1454387989        3.6091690918        0.5346951581
 O         -3.4861267795        1.2527349617        0.5897503499
 C         -3.2797489499       -0.1024553585        0.4060987710
 O         -4.0531103099       -0.8282263378        1.0652418919
 H          0.4247107095       -1.1989068901       -0.2648609195
 C          0.1614176696       -1.9535570594        0.4554318113
 C         -1.1054873406       -2.5187995791        0.4247372523
 C         -1.4215655105       -3.5041972682        1.3517080733
 C         -0.4939161902       -3.8981758176        2.2999078433
 C          0.7473552700       -3.2921608078        2.3618966723
 C          1.0730594599       -2.3033287487        1.4389062013
 N          2.3159876801       -1.6553603690        1.4908007902
 S          2.4422570304        0.0146066808        1.3026620887
 O          3.3202765310        0.4417875615        2.3754116380
 O          1.1456368306        0.6419500711        1.2582373886
 C          3.3279777799        0.1812461192       -0.2343947918
 C          4.7080171799        0.1166281689       -0.1747932623
 C          5.4402395695        0.2144528177       -1.3457471526
 C          4.7833424390        0.3742273668       -2.5568084625
 C          3.3999494890        0.4377759571       -2.6001226920
 C          2.6596044195        0.3391349783       -1.4309586417
 H          1.5814232595        0.3845293986       -1.4543404913
 H          2.8825705587        0.5614436064       -3.5382003619
 H          5.3512595187        0.4512554658       -3.4706683928
 H          6.5167795495        0.1666595374       -1.3115807330
 H          5.1766083102        0.0064381296        0.7892354077
 H          2.9036210403       -1.9602921385        2.2535049303
 H          1.4592530902       -3.5743381074        3.1232592822
 H         -0.7483726301       -4.6670609069        3.0138037240
 H         -2.4070728506       -3.9462293179        1.3400884940
 C         -2.1258032108       -2.0383300097       -0.5808175877
 H         -3.0994415408       -2.4581382592       -0.2915611670
 C         -1.7881798115       -2.5326163910       -1.9733117874
 C         -2.1449710420       -3.9379440012       -2.3500761961
 C         -2.8948252119       -2.7871692016       -2.9499474268
 H         -2.7297057423       -2.5442063925       -3.9886572371
 H         -3.9066795517       -2.6074809310       -2.6159327966
 H         -1.4629255524       -4.4903608020       -2.9777421658
 H         -2.6517030819       -4.5422077405       -1.6128352453
 H         -0.8655920515       -2.1245974416       -2.3629255981
 O         -0.5187980108        0.0840236787       -1.9371192302
