  62
        -98.93916304
 C         -1.8618556499       -0.8658688707       -0.1961882899
 C         -2.4732620299       -0.2739435702        0.9315927698
 C         -3.5654035900        0.6801403796        0.6691089294
 C         -3.9070433500        0.9563767791       -0.6035892707
 C         -4.9348185900        1.9103624788       -1.1763884411
 C         -6.0009489101        2.5399987691       -0.2838586013
 C         -7.0419476800        1.5591019192        0.2551769691
 H         -7.6820286100        2.0928460295        0.9610093389
 H         -7.6685462600        1.2274516689       -0.5765798908
 C         -6.4823205200        0.3121245495        0.9350544796
 H         -7.3283178999       -0.3028778004        1.2535913898
 H         -5.9121912999       -0.2750892407        0.2123206798
 C         -5.6105214700        0.5723594501        2.1616153095
 H         -5.4096236399       -0.3932420397        2.6333991199
 H         -6.1584863700        1.1867478203        2.8786681392
 C         -4.2541577000        1.2411084900        1.8802475392
 H         -3.5949604600        1.0360419904        2.7290885193
 H         -4.3551160501        2.3210597900        1.8006527988
 H         -6.5276522501        3.2743429488       -0.8994237816
 H         -5.5351623001        3.0892587594        0.5291448285
 H         -4.3593629801        2.7142252686       -1.6491090914
 H         -5.4251419100        1.3663385384       -1.9900328708
 O         -3.2634689999        0.3823887387       -1.6626951904
 C         -2.2396755399       -0.5363829212       -1.4965440101
 O         -1.7624034199       -0.9713530916       -2.5606044199
 O         -2.1123589799       -0.5193236297        2.1151139199
 C         -0.7386665598       -1.8652520905        0.0109204605
 C          0.5344479501       -1.3512431407       -0.6154612897
 C          1.3508214902       -2.1186589310       -1.4350340294
 C          2.5017310702       -1.5776931511       -1.9833333896
 C          2.8685362401       -0.2714417410       -1.7204285302
 C          2.0701288300        0.4985602093       -0.8829961005
 C          0.9204884501       -0.0460189906       -0.3328897303
 H          0.2981253200        0.5573142797        0.3165864195
 N          2.4411726600        1.8219187794       -0.5936429510
 S          4.0475100900        2.1361950496       -0.2479539211
 O          4.0287489999        3.3091582300        0.5978465084
 O          4.7938705799        2.2592356292       -1.4753924912
 C          4.6199079400        0.7145630800        0.6658612695
 C          3.9835560600        0.4046965605        1.8515641696
 C          4.3933306601       -0.7129303992        2.5598868400
 C          5.4275072701       -1.4978670094        2.0728905003
 C          6.0601695601       -1.1701165298        0.8840896902
 C          5.6529691401       -0.0543180401        0.1702838698
 H          6.1148593901        0.2352472295       -0.7594478103
 H          6.8653909102       -1.7809050599        0.5091109605
 H          5.7413076902       -2.3693507291        2.6253631207
 H          3.9019152301       -0.9684388089        3.4850177601
 H          3.1854514700        1.0372357806        2.2064549693
 H          1.8239647499        2.2926831796        0.0508500988
 H          3.7493423601        0.1695026989       -2.1580384303
 H          3.1194012902       -2.1816794514       -2.6300486594
 H          1.0811866702       -3.1379405311       -1.6559500290
 H         -0.5874100298       -1.9109537901        1.0998007105
 C         -1.1503701598       -3.2366811007       -0.4807351290
 C         -0.5634193897       -4.4684083005        0.1394712515
 C         -1.9906104997       -4.1009004004        0.4095857314
 H         -2.7729833897       -4.6954422306       -0.0378469384
 H         -2.2447356797       -3.7096533600        1.3839937612
 H         -0.3668754896       -5.3206932707       -0.4932174581
 H          0.1530000203       -4.3339951801        0.9354850615
 H         -1.3706321598       -3.2491733912       -1.5422970090
