  62
        -98.94796715
 C          1.2519456852        0.7781716963        0.3984570762
 C          2.0910450370        0.5942205788       -0.7262820779
 C          3.0462868200       -0.5167345343       -0.6307718843
 C          3.0314904255       -1.3235283359        0.4455998484
 C          3.9204875235       -2.5166520462        0.6705003440
 C          5.2975955131       -2.1706913214        1.2536961347
 C          6.2642334018       -1.4927439310        0.2817995454
 H          7.2504853292       -1.5064522771        0.7499156042
 H          6.3296089169       -2.0827065483       -0.6329030455
 C          5.9011302690       -0.0417869979       -0.0634806331
 H          5.1904140313        0.3405856150        0.6726571031
 H          6.7954504110        0.5820310744       -0.0001803402
 C          5.3136988197        0.1488138378       -1.4618897336
 H          6.0638527987       -0.1078727969       -2.2130749926
 H          5.0593520872        1.2043858044       -1.5860246749
 C          4.0491800857       -0.6770408540       -1.7331543798
 H          3.5887308907       -0.3106911611       -2.6541512758
 H          4.3057208340       -1.7280942668       -1.8658173507
 H          5.1553427207       -1.5345995279        2.1303874415
 H          5.7510915345       -3.1054534936        1.5913925993
 H          3.3969029733       -3.1638103206        1.3779372555
 H          4.0453753075       -3.0608387811       -0.2663137959
 O          2.1614546812       -1.1533857453        1.4768309086
 C          1.2595171380       -0.1022188382        1.4798790304
 O          0.5216326626       -0.0604055260        2.4868285714
 H         -0.8397686441       -0.4086570190       -0.3301928686
 C         -1.2590145880        0.4123541920       -0.8911106872
 C         -0.7902856883        1.7004609179       -0.6741925311
 C         -1.3225745633        2.7345018299       -1.4340741759
 C         -2.2893981324        2.4720775707       -2.3896316141
 C         -2.7665132432        1.1889695097       -2.5884302339
 C         -2.2439782452        0.1488955854       -1.8284026653
 N         -2.6995269013       -1.1701212100       -1.9789588497
 S         -2.8413593774       -2.1363165764       -0.6195198552
 O         -1.5452332518       -2.6035642425       -0.1947077932
 O         -3.7815434287       -3.1648076747       -1.0132810746
 C         -3.5893181348       -1.0788122805        0.6079070709
 C         -2.8635321639       -0.5998095400        1.6788000901
 C         -3.4808919146        0.2663808492        2.5688143728
 C         -4.8021524120        0.6362953053        2.3763492858
 C         -5.5212870749        0.1380743880        1.3000114316
 C         -4.9101714976       -0.7242128683        0.4058093049
 H         -5.4374124549       -1.1422333163       -0.4363372486
 H         -6.5511648822        0.4215605020        1.1550750370
 H         -5.2733423933        1.3137052568        3.0708990645
 H         -2.9130136053        0.6469773743        3.4030651524
 H         -1.8335816009       -0.8930295873        1.8132199645
 H         -3.4833695482       -1.2823430288       -2.6049657333
 H         -3.5268042595        0.9897345814       -3.3277184019
 H         -2.6863615398        3.2822362840       -2.9820207342
 H         -0.9754050489        3.7434916957       -1.2838668193
 C          0.2375119569        1.9061414303        0.4134320923
 H         -0.2869654906        1.8276186317        1.3781103102
 C          0.9311377486        3.2507985333        0.3442282744
 C          0.3297396046        4.4470782740        1.0169078455
 C          1.5567587274        3.8044436780        1.5881456043
 H          2.5006080663        4.3219818879        1.5048580756
 H          1.4576623920        3.2225990035        2.4934284512
 H          0.4336963183        5.4114693262        0.5429477959
 H         -0.6030498545        4.3098074686        1.5425960007
 H          1.4606324746        3.3972768466       -0.5898088203
 O          2.0469441502        1.3148599735       -1.7573258482
