  62
        -98.93464608
 C         -1.7111974350       -0.2428584011        0.4357194979
 C         -2.8996344699       -0.4024956513        1.1878472680
 C         -4.1610393877       -0.5530105408        0.4364193891
 C         -4.1198746326       -0.4993036174       -0.9076874589
 C         -5.2673224664       -0.5811142571       -1.8788627867
 C         -6.0809117248        0.7216863321       -1.9442944316
 C         -6.3887338191        1.3572502184       -0.5909244534
 H         -5.4520232529        1.5579081783       -0.0675356616
 H         -6.8672856981        2.3221855795       -0.7784856059
 C         -7.3128620356        0.5464295111        0.3145185136
 H         -7.5142625401        1.1544777991        1.2002980902
 H         -8.2634287126        0.3829386785       -0.1982087533
 C         -6.7734452665       -0.8071982977        0.7812590667
 H         -6.8495144139       -1.5522881364       -0.0061109969
 H         -7.4177021311       -1.1504170008        1.5960994537
 C         -5.3532125330       -0.7702768375        1.3369249936
 H         -5.1595061275       -1.7150204084        1.8596901760
 H         -5.2907670144        0.0029144053        2.1112865592
 H         -7.0131137702        0.5202307918       -2.4746941659
 H         -5.5095321997        1.4467704735       -2.5290354270
 H         -4.8321881274       -0.7680853124       -2.8630378428
 H         -5.9051899773       -1.4248966553       -1.6329592773
 O         -2.9562883154       -0.3059381162       -1.5904126403
 C         -1.7320921575       -0.1702170474       -0.9573935363
 O         -0.7766951511        0.0062034621       -1.7352077525
 O         -2.9149853125       -0.4101735582        2.4487599723
 C         -0.4095051841       -0.0817712129        1.1986850563
 C          0.3800525957        1.0813009789        0.6533398469
 C         -0.2264603184        2.3343484333        0.5949362218
 C          0.4519103966        3.4265782882        0.0931685506
 C          1.7627209284        3.3015502776       -0.3346923188
 C          2.3814651114        2.0611091365       -0.2685754448
 C          1.6879331690        0.9597743200        0.2145672851
 H          2.1810090976        0.0029053738        0.2282514393
 N          3.7097421499        1.8890164405       -0.6899090372
 S          4.7480791900        1.0048446746        0.2813661581
 O          4.4075219516        1.1399055968        1.6789873692
 O          6.0728956973        1.4519805972       -0.0943984661
 C          4.5502787490       -0.6866090537       -0.2359163127
 C          4.4387746278       -1.6754812935        0.7213788367
 C          4.3327456637       -2.9958230322        0.3130970388
 C          4.3415518965       -3.3021538695       -1.0392674835
 C          4.4542458343       -2.2968753146       -1.9877918031
 C          4.5634321748       -0.9753415727       -1.5859191603
 H          4.6534480064       -0.1693009222       -2.2946107642
 H          4.4564760725       -2.5393308051       -3.0382393451
 H          4.2563131055       -4.3300393204       -1.3551372939
 H          4.2420234750       -3.7783634917        1.0497911694
 H          4.4272582618       -1.3909643300        1.7616238837
 H          4.1542788662        2.7251711491       -1.0405016821
 H          2.2981871823        4.1558678582       -0.7208707713
 H         -0.0377974164        4.3877163189        0.0428203700
 H         -1.2474786861        2.4360992935        0.9381562992
 H         -0.7254868539        0.1804740151        2.2231852880
 C          0.4080287757       -1.3599030667        1.3129479914
 C         -0.2461142065       -2.7069046367        1.2536130869
 C          0.6487006744       -2.2594630113        0.1388857923
 H          1.6191661847       -2.7233279808        0.0403599787
 H          0.2021851278       -1.9779029038       -0.8014291202
 H          0.1076052795       -3.4767749808        1.9226559654
 H         -1.3110749608       -2.7390666703        1.0747156703
 H          1.2247530901       -1.2542398067        2.0214967667
