  62
        -98.93527234
 C          1.7046079185        1.7184626158        0.0741272940
 C          1.4400893985        0.3294655323       -0.0271135328
 C          2.5469704507       -0.5655803827        0.3593139541
 C          3.7083239697       -0.0396354386        0.7854473882
 C          4.9467268953       -0.8173927234        1.1300957574
 C          5.6605794317       -1.2748016400       -0.1579807187
 C          5.6878421591       -2.7901511984       -0.3589349707
 H          6.0213026081       -2.9781732233       -1.3818355364
 H          6.4309054421       -3.2236784692        0.3138616021
 C          4.3605725472       -3.5178720266       -0.1244078619
 H          4.4661735345       -4.5161733824       -0.5544124458
 H          4.2027184631       -3.6555964554        0.9463047144
 C          3.1153890199       -2.8508957859       -0.7231956088
 H          2.4681954407       -3.6356220667       -1.1197073925
 H          3.3888113754       -2.2119541662       -1.5630673009
 C          2.2756292195       -2.0423447014        0.2829276002
 H          1.2221712809       -2.1117767380       -0.0035767990
 H          2.3774803887       -2.4818819974        1.2788939459
 H          5.1671748824       -0.8022138142       -1.0099284751
 H          6.6897744151       -0.9123906787       -0.1519948851
 H          5.5936130740       -0.1577048396        1.7089738405
 H          4.6829893599       -1.6742772752        1.7461802028
 O          3.9169079880        1.2994511037        0.8864190528
 C          2.9235077182        2.2047153847        0.5543481871
 O          3.2407486962        3.3980821248        0.7310384879
 H         -1.6393769409        1.8143178649       -1.4453102986
 C         -1.7242756462        1.8796672049       -0.3719348711
 C         -0.6589825961        2.3549416450        0.3748453351
 C         -0.7819475006        2.3968177814        1.7602468807
 C         -1.9415928260        1.9704467938        2.3797932368
 C         -3.0008837661        1.4877980171        1.6313974160
 C         -2.8839067649        1.4352414417        0.2489129857
 N         -3.9498506752        0.9412654998       -0.5272195696
 S         -4.6013609092       -0.5551741665       -0.1589960556
 O         -5.4349905017       -0.8836805269       -1.2940936316
 O         -5.2701322223       -0.4786993269        1.1161640690
 C         -3.2346705291       -1.6954614652       -0.0632339973
 C         -2.8071722812       -2.3068167922       -1.2243097614
 C         -1.7432925803       -3.1907432770       -1.1643318363
 C         -1.1234155555       -3.4406814172        0.0496686972
 C         -1.5559046215       -2.8078704077        1.2041602838
 C         -2.6218009611       -1.9252688403        1.1511213085
 H         -2.9908055573       -1.4214509848        2.0294546281
 H         -1.0632177206       -2.9961472608        2.1447845723
 H         -0.2981849156       -4.1343480259        0.0974930352
 H         -1.3985010770       -3.6780243351       -2.0624704756
 H         -3.3238300410       -2.0942087699       -2.1466841639
 H         -3.7701448147        0.9906609811       -1.5201195854
 H         -3.9080733628        1.1396955141        2.0982926332
 H         -2.0219695591        2.0094971316        3.4558865093
 H          0.0524671209        2.7566427176        2.3474095902
 C          0.6494344260        2.7633321448       -0.2531031205
 H          0.9951780628        3.6832462630        0.2453487768
 C          0.5286940188        3.0914749505       -1.7337223603
 C          1.7437040847        3.1098623348       -2.6111708549
 C          0.6930684134        2.0607292610       -2.8084978095
 H          0.0623950185        2.1298903111       -3.6833185760
 H          0.9103912175        1.0487103875       -2.5059800414
 H          1.8354909775        3.8949380420       -3.3466081922
 H          2.6835742631        2.8185322410       -2.1649958262
 H         -0.2062957307        3.8706077305       -1.9137260483
 O          0.3488403434       -0.1567753221       -0.4188831287
