  62
        -98.93930241
 C         -2.0207430245       -0.8907434738        0.0235115824
 C         -2.3222144887        0.0861369828        0.9971613725
 C         -2.3721577111        1.4841951016        0.5382712461
 C         -2.1235133793        1.7619357695       -0.7554130026
 C         -2.0340723910        3.0835218524       -1.4907337545
 C         -2.5631120698        4.3688396642       -0.8595414797
 C         -4.0806279075        4.4178827888       -0.6852653721
 H         -4.3319129500        5.3321337545       -0.1434238293
 H         -4.5415918108        4.4780937245       -1.6741601737
 C         -4.6981888914        3.2248409542        0.0395261938
 H         -4.5391290723        2.3172425392       -0.5462479515
 H         -5.7776563221        3.3889361962        0.0945100728
 C         -4.1912656918        2.9911316157        1.4612835161
 H         -4.8257386899        2.2253477701        1.9151427358
 H         -4.3004601135        3.9061463546        2.0464248690
 C         -2.7343251186        2.5083188374        1.5753476272
 H         -2.0341787130        3.3405993598        1.5496961557
 H         -2.6146764384        2.0148839210        2.5445982148
 H         -2.0633732041        4.5548337387        0.0866101451
 H         -2.2808666669        5.1833995821       -1.5321891755
 H         -0.9692289143        3.2163644938       -1.7149245024
 H         -2.5335912270        2.9236817367       -2.4517684849
 O         -1.8432923909        0.7811808701       -1.6632709026
 C         -1.7624440917       -0.5517249473       -1.3032433582
 O         -1.4784618701       -1.3224834187       -2.2407731725
 O         -2.5308342128       -0.1960692138        2.2100008073
 C         -1.8747643275       -2.3410527425        0.4447393240
 C         -0.4720728420       -2.8081619458        0.1392859377
 C         -0.1790101212       -4.0481772692       -0.4130670044
 C          1.1298859572       -4.3905005129       -0.7071920793
 C          2.1656792563       -3.5060608827       -0.4715846326
 C          1.8843961425       -2.2705453646        0.1020450764
 C          0.5782415202       -1.9437863184        0.4221256046
 H          0.3731622954       -0.9799303616        0.8665162681
 N          2.9116836004       -1.3507974838        0.3807215353
 S          2.5626138278        0.2967711350        0.2477923395
 O          1.9388732978        0.7384634362        1.4711558932
 O          1.8442300101        0.5702572123       -0.9767849418
 C          4.2178990294        0.9557316221        0.1567667527
 C          4.9429563064        1.0849221000        1.3265550774
 C          6.2422362438        1.5622831378        1.2599767523
 C          6.7921800364        1.8999484718        0.0320747745
 C          6.0517955704        1.7670739962       -1.1329307291
 C          4.7519703431        1.2886943050       -1.0734995691
 H          4.1349785803        1.1744968479       -1.9506352202
 H          6.4801347813        2.0334033149       -2.0857339076
 H          7.8033814957        2.2717019286       -0.0172558675
 H          6.8197302840        1.6695365274        2.1638945655
 H          4.4686610956        0.8183671793        2.2565878401
 H          3.7777614029       -1.5811728874       -0.0879302029
 H          3.1818135289       -3.7649483776       -0.7274106290
 H          1.3434562795       -5.3540437444       -1.1444855879
 H         -0.9764601792       -4.7407244324       -0.6273738448
 H         -2.0124998789       -2.3461053273        1.5369006767
 C         -2.9499084005       -3.1984974910       -0.1892903760
 C         -3.4617109758       -4.4178930119        0.5162599266
 C         -4.3230493441       -3.1966020125        0.4106611321
 H         -5.1748589474       -3.2183201148       -0.2522803896
 H         -4.4737368677       -2.5957412591        1.2957502458
 H         -3.7268988851       -5.2817532329       -0.0743553107
 H         -3.0349543741       -4.6532953970        1.4794631791
 H         -2.8753117806       -3.2209008637       -1.2708529960
