  62
        -98.94103668
 C         -2.4639041703       -1.3644895500       -0.0628254407
 C         -3.3112181103       -0.8142211001        0.9348664994
 C         -4.2722339204        0.2042695599        0.4942511895
 C         -4.3004742504        0.5595178800       -0.8027479905
 C         -5.2009967405        1.6078568300       -1.3878275304
 C         -4.5346825605        2.9904969800       -1.3728945803
 C         -3.9294440305        3.3703742699       -0.0213694702
 H         -3.0905419305        2.7041040200        0.1951853497
 H         -3.5180508606        4.3773636500       -0.1207804701
 C         -4.9203878505        3.3355774898        1.1506043398
 H         -5.9429202805        3.3551702898        0.7718538098
 H         -4.7800280306        4.2353455097        1.7531584699
 C         -4.7498270605        2.1396857697        2.0892906597
 H         -3.7028627305        2.0596327797        2.3932874796
 H         -5.3386225005        2.3288448596        2.9907678597
 C         -5.1952475804        0.7830479797        1.5292532095
 H         -5.2012783204        0.0679722896        2.3570432095
 H         -6.2109486704        0.8633493397        1.1363541595
 H         -3.7365451005        2.9999306802       -2.1190369703
 H         -5.2786204806        3.7350222300       -1.6622189502
 H         -6.1301786105        1.6353920399       -0.8218039604
 H         -5.4225521805        1.3327890201       -2.4204541104
 O         -3.4706057604        0.0210395401       -1.7297206706
 C         -2.5294845503       -0.9452016499       -1.3918778807
 O         -1.8428318903       -1.3243630797       -2.3597538507
 O         -3.2736653203       -1.1745798002        2.1418188193
 C         -1.5004680602       -2.4489382900        0.3899595292
 C         -0.1306303703       -1.8903099899        0.6784090792
 C          0.4800675898       -2.0952328500        1.9100227492
 C          1.7370166297       -1.5758794100        2.1673825192
 C          2.4119046597       -0.8491805299        1.2029260693
 C          1.8063730997       -0.6299257098       -0.0277412207
 C          0.5439529697       -1.1475071698       -0.2812149507
 H          0.0760566397       -0.9750295097       -1.2395806007
 N          2.4861974396        0.0909545704       -1.0241080806
 S          3.2077306795        1.5472872504       -0.6087711405
 O          2.5169176595        2.1887804302        0.4865840896
 O          3.2916489695        2.2967122605       -1.8431855204
 C          4.8492514596        1.0733085104       -0.1062545405
 C          5.3486646996        1.4978573603        1.1094157395
 C          6.6325754496        1.1228378403        1.4742367695
 C          7.3901415696        0.3350280005        0.6212699994
 C          6.8749213296       -0.0804340194       -0.5977188906
 C          5.5929314396        0.2920075905       -0.9690346106
 H          5.1564193596       -0.0081510894       -1.9070407506
 H          7.4667894097       -0.6931492193       -1.2584864407
 H          8.3880117696        0.0429183605        0.9080289294
 H          7.0347831496        1.4452897203        2.4211654295
 H          4.7202588195        2.1032270002        1.7432609496
 H          1.9627338996        0.1775940404       -1.8836419906
 H          3.3910803097       -0.4432176498        1.3972132293
 H          2.1982865797       -1.7406006601        3.1290448792
 H         -0.0441359102       -2.6527053401        2.6723928191
 H         -1.9185447302       -2.8001279101        1.3466172691
 C         -1.4717107602       -3.6446669899       -0.5541699709
 C         -0.2861582202       -4.0311773397       -1.3817822410
 C         -0.6693320601       -4.8606970199       -0.1955747011
 H         -1.1034261001       -5.8353263699       -0.3588305112
 H         -0.0404586501       -4.7956350599        0.6795876689
 H         -0.4759461602       -4.4160989496       -2.3722198910
 H          0.6056624898       -3.4286494597       -1.3153177009
 H         -2.4435041502       -3.8204625199       -1.0052211709
