  62
        -98.93769398
 C          2.1502483046        1.2100081145        0.4557355870
 C          2.3151025589        0.3517170629       -0.6578939725
 C          3.1232934198       -0.8569597610       -0.4265729169
 C          3.6106172704       -1.0967384819        0.8042598205
 C          4.5096381261       -2.2402877306        1.1800463831
 C          5.9486739489       -1.9592674088        0.7021615227
 C          6.4525692634       -2.9178861004       -0.3767118512
 H          7.3764122405       -2.4987952910       -0.7807592343
 H          6.6995170654       -3.8754351586        0.0864630573
 C          5.4833063018       -3.1923340374       -1.5306276152
 H          4.7375204212       -3.9250341619       -1.2183699391
 H          6.0634329694       -3.6601864017       -2.3288232388
 C          4.7571001819       -1.9680156084       -2.1027471809
 H          5.3260361651       -1.0582689732       -1.9103697890
 H          4.6985388215       -2.0839065525       -3.1868147421
 C          3.3144036062       -1.7831037234       -1.5956816459
 H          2.7136292205       -1.3445482889       -2.3983178460
 H          2.8794909282       -2.7593172278       -1.3617823970
 H          6.6305469495       -2.0121407060        1.5521527371
 H          5.9905847112       -0.9341579491        0.3284812288
 H          4.4805430738       -2.3329915310        2.2659972020
 H          4.1326277837       -3.1620642733        0.7421159817
 O          3.3939961428       -0.2678136291        1.8593180948
 C          2.6579412954        0.8973142623        1.7153726728
 O          2.5208831330        1.5530704844        2.7688929284
 H         -0.2211837409        0.7549688558        1.5745994471
 C         -0.7410883717        1.1859205260        0.7265393784
 C         -0.0843285867        2.1280218697       -0.0565180362
 C         -0.7596536197        2.6743469492       -1.1388604105
 C         -2.0507349037        2.2698752520       -1.4338722182
 C         -2.6966673954        1.3263822161       -0.6567624064
 C         -2.0328616973        0.7797023209        0.4341787418
 N         -2.6864800897       -0.1719407722        1.2411617487
 S         -3.2958610046       -1.5398807741        0.4755679772
 O         -3.3419327368       -2.5578025053        1.5034611843
 O         -2.5447749105       -1.8629417842       -0.7155444650
 C         -4.9598700500       -1.0736555615        0.0471007714
 C         -5.8002008642       -0.6590985650        1.0619222482
 C         -7.0997909290       -0.2955999672        0.7472861757
 C         -7.5349864014       -0.3547074246       -0.5684588577
 C         -6.6798446469       -0.7761536307       -1.5751489567
 C         -5.3780561394       -1.1405030379       -1.2673980295
 H         -4.6748950385       -1.4680932278       -2.0165900569
 H         -7.0197749514       -0.8216664136       -2.5972884457
 H         -8.5468479175       -0.0706878099       -0.8108201690
 H         -7.7676456377        0.0326672736        1.5273070479
 H         -5.4224203174       -0.6310805391        2.0703167314
 H         -2.1460876472       -0.4444387060        2.0502142904
 H         -3.6996041820        1.0062165511       -0.8871534865
 H         -2.5608911325        2.6957754053       -2.2842867178
 H         -0.2715903765        3.4065875383       -1.7603674954
 C          1.3342981187        2.4843600026        0.3187669242
 H          1.3155928735        2.9404329198        1.3193978880
 C          2.0010283127        3.4439149612       -0.6433069751
 C          1.7716502951        4.9187518054       -0.5121618783
 C          3.0974285902        4.3301789486       -0.1364565723
 H          3.9468540546        4.5165351283       -0.7762892445
 H          3.3492213719        4.2579247581        0.9118991850
 H          1.1237400633        5.2545527367        0.2831985195
 H          1.7134042685        5.5138336940       -1.4108303124
 H          2.1147949005        3.0266412037       -1.6368622371
 O          1.8148779904        0.5811589146       -1.7895347958
