  62
        -98.94524033
 C         -2.4499002878       -1.2094952616       -0.0806008453
 C         -3.5175435105       -0.8030508483        0.7602422995
 C         -4.3836641227        0.2573914488        0.2361491508
 C         -4.1361386364        0.7803780588       -0.9784228744
 C         -4.9365137566        1.8578879337       -1.6582923722
 C         -4.5492981672        3.2818468828       -1.2359686025
 C         -4.9916451796        3.6862210305        0.1709630136
 H         -6.0572566115        3.4860197292        0.2868384622
 H         -4.8519120561        4.7660248088        0.2517344492
 C         -4.2107408992        3.0022197661        1.3018890397
 H         -3.9267134516        3.7463010499        2.0494751691
 H         -3.2838855795        2.5823260398        0.9030766726
 C         -4.9821808423        1.9009552972        2.0294099367
 H         -5.8407117310        2.3355414325        2.5460195273
 H         -4.3223991332        1.4615122513        2.7816464327
 C         -5.4808281664        0.7713556153        1.1187870679
 H         -6.3222548724        1.1155769846        0.5181063085
 H         -5.8145311101       -0.0558022982        1.7499265597
 H         -5.0087628285        3.9693589136       -1.9499436356
 H         -3.4652279318        3.3891900335       -1.3227215057
 H         -5.9990029278        1.6980195302       -1.4727222645
 H         -4.7503264465        1.7542263122       -2.7294495422
 O         -3.1063836406        0.3591435105       -1.7588904619
 C         -2.2277873966       -0.6252583647       -1.3275816210
 O         -1.3248604740       -0.8854904654       -2.1474226284
 O         -3.7379003343       -1.3082441447        1.8924203109
 C         -1.5062367701       -2.2818117325        0.4406911360
 C         -0.1829124719       -1.6259750237        0.7475863815
 C         -0.0081942346       -0.9805904896        1.9688302754
 C          1.1649596612       -0.3056530681        2.2488594956
 C          2.1834341395       -0.2480644992        1.3129872695
 C          2.0106543160       -0.8718825554        0.0854051877
 C          0.8425233621       -1.5727678124       -0.1835638047
 H          0.7170975972       -2.0413816711       -1.1468078333
 N          3.0310122189       -0.7994026119       -0.8802736942
 S          3.6650853613        0.7176905266       -1.2264357788
 O          2.7114453854        1.7720969356       -0.9680774292
 O          4.1700054277        0.6198441382       -2.5788629985
 C          5.0461867905        0.8550553231       -0.1086921427
 C          5.1461498789        1.9436345547        0.7353343190
 C          6.2332836273        2.0310334669        1.5912667960
 C          7.1966999187        1.0341379059        1.5871822914
 C          7.0837955801       -0.0509501091        0.7306198530
 C          6.0001802304       -0.1436756150       -0.1279504642
 H          5.8764823337       -0.9673580888       -0.8108753391
 H          7.8352374376       -0.8240091621        0.7297984630
 H          8.0406701892        1.1036657417        2.2551456087
 H          6.3227158069        2.8746172051        2.2567825248
 H          4.3695557277        2.6916001370        0.7074807154
 H          2.7976498471       -1.2809686098       -1.7374039723
 H          3.0958717442        0.2875712640        1.5181400683
 H          1.2880229072        0.1852799610        3.2022825554
 H         -0.8133159725       -1.0031954589        2.6899615231
 H         -1.9482310218       -2.6184887611        1.3880237125
 C         -1.4028311512       -3.4669614189       -0.4956477812
 C         -0.7958112862       -4.7424086800        0.0052478207
 C         -2.2691079773       -4.6656603778       -0.2564398931
 H         -2.6704206173       -5.1883945233       -1.1117338832
 H         -2.9387241501       -4.6370017438        0.5905084914
 H         -0.1830653893       -5.3217793841       -0.6682492779
 H         -0.4638005604       -4.7638781022        1.0320988950
 H         -1.2222230630       -3.1887198895       -1.5267211434
