  62
        -98.93777459
 C         -1.3856627002       -1.4823835498        0.0691192695
 C         -2.5443042703       -1.0720306295        0.7688397191
 C         -3.2436379302        0.1238487903        0.2662874785
 C         -2.7125198301        0.8014800898       -0.7669987517
 C         -3.2331207400        2.0379942095       -1.4557725823
 C         -3.7616520702        3.1615470199       -0.5512176828
 C         -5.2814876002        3.3283028699       -0.6100557331
 H         -5.5307660902        4.3516350900       -0.3208662436
 H         -5.6045691600        3.1937291294       -1.6444499931
 C         -6.0761681503        2.3869216202        0.2932487872
 H         -7.1343190002        2.5128749701        0.0523267770
 H         -5.9416085304        2.6869258807        1.3347627871
 C         -5.7176152002        0.9049967402        0.1686281678
 H         -6.5727873703        0.3234518403        0.5193184380
 H         -5.5567172701        0.6377971297       -0.8752341720
 C         -4.4983600703        0.4954635905        1.0085814382
 H         -4.2589507105        1.2821588308        1.7304555479
 H         -4.7412514004       -0.3912475692        1.6028424085
 H         -3.4326697503        2.9960217003        0.4739507973
 H         -3.3070969701        4.0962763698       -0.8841360331
 H         -4.0080707599        1.7389979192       -2.1666385123
 H         -2.3907227699        2.4056002593       -2.0462927023
 O         -1.5642972700        0.4006815896       -1.3798615113
 C         -0.8672819900       -0.7255934902       -0.9807371608
 O          0.1694763001       -0.9370094205       -1.6383731205
 O         -2.9841607104       -1.6853794691        1.7803458893
 C         -0.6454653102       -2.7078785696        0.5740900701
 C          0.8269669698       -2.4036390395        0.6961844902
 C          1.8337158198       -3.2086979497        0.1793804307
 C          3.1638944298       -2.8524691496        0.3255002307
 C          3.5168409897       -1.6780624593        0.9633798103
 C          2.5157545396       -0.8643941291        1.4810767198
 C          1.1898227996       -1.2439295292        1.3715220097
 H          0.4253859196       -0.5973573190        1.7790949994
 N          2.8105059195        0.3713526211        2.1010822093
 S          2.3430311896        1.7316580608        1.2345105987
 O          2.7851188095        2.8585189411        2.0293376483
 O          0.9336527496        1.6678658206        0.9471292285
 C          3.3239849198        1.6399010002       -0.2530966911
 C          2.9285855400        0.8045911397       -1.2785781009
 C          3.7581557202        0.6723161793       -2.3827559807
 C          4.9562847002        1.3666207693       -2.4417327308
 C          5.3365597800        2.2028502597       -1.4023784011
 C          4.5171785298        2.3368562302       -0.2938801013
 H          4.7691766897        2.9746234905        0.5381732185
 H          6.2672361100        2.7449493297       -1.4505250112
 H          5.5962635303        1.2551799989       -3.3028424506
 H          3.4552969403        0.0199174789       -3.1859988804
 H          1.9895425000        0.2755532797       -1.2173505808
 H          3.7849495595        0.4710696713        2.3543976094
 H          4.5523516297       -1.3858861393        1.0544491703
 H          3.9342164999       -3.4889407798       -0.0821574089
 H          1.5790123899       -4.1081963399       -0.3562861490
 H         -1.0413434704       -2.8625721892        1.5925586701
 C         -0.9409912401       -3.9819564399       -0.2041840094
 C         -2.1936203600       -4.1226108203       -1.0150045195
 C         -0.8645082899       -4.0345637405       -1.6997825094
 H         -0.4684385698       -4.9264436707       -2.1628128690
 H         -0.6108976598       -3.1218639007       -2.2153379997
 H         -2.7072577799       -5.0723000303       -1.0020209992
 H         -2.8547284400       -3.2695946003       -1.0686279100
 H         -0.6204751401       -4.8697050097        0.3321869910
