  62
        -98.94490276
 C          1.8527543449        0.4096772067        0.0524861897
 C          2.9214976196        0.4828022519        0.9863273111
 C          4.0756163700       -0.3881968485        0.7349632616
 C          4.0571879331       -1.2070752445       -0.3320273430
 C          5.1823258057       -2.1111648372       -0.7420296154
 C          6.1346963028       -1.4061393817       -1.7180215492
 C          6.5826079945       -0.0207732024       -1.2520122066
 H          7.2764780798        0.3654687506       -2.0017603913
 H          5.7185774638        0.6474507354       -1.2391381305
 C          7.2571672680       -0.0016078500        0.1268014461
 H          7.5825835264       -1.0075677303        0.3944267710
 H          8.1508692749        0.6234912902        0.0708045539
 C          6.3871835342        0.5651054151        1.2503942820
 H          5.9829506444        1.5341681989        0.9473275668
 H          7.0255287421        0.7350191188        2.1215273585
 C          5.2216214384       -0.3225048548        1.7048855666
 H          5.5899066158       -1.3249757117        1.9328679146
 H          4.8127729783        0.1100216603        2.6227012555
 H          5.6266667740       -1.2965252337       -2.6790084174
 H          7.0088972350       -2.0425595779       -1.8669813139
 H          4.7575271760       -2.9887495840       -1.2324964029
 H          5.7255059696       -2.4309530351        0.1452172434
 O          3.0122994832       -1.2671705770       -1.1928205637
 C          1.8899093298       -0.4671771097       -1.0314654290
 O          1.0276084385       -0.6494119476       -1.9156186580
 O          2.9093917169        1.2509937044        1.9845612018
 C          0.6692859694        1.3284288741        0.3082884418
 C         -0.4765841949        0.5937472550        0.9619035103
 C         -0.9131648425        0.9382969847        2.2354202780
 C         -1.9852778406        0.2826279291        2.8162660159
 C         -2.6435908976       -0.7277145540        2.1389172369
 C         -2.2094231955       -1.0827882968        0.8683109238
 C         -1.1398351004       -0.4204468568        0.2854689105
 H         -0.8055649706       -0.7053217835       -0.7009830319
 N         -2.8859666693       -2.0999520944        0.1613429419
 S         -4.5138754643       -1.8022001384       -0.1134903645
 O         -5.2563274449       -2.0892468708        1.0881733632
 O         -4.8665682901       -2.5824170814       -1.2782059315
 C         -4.5824691496       -0.0562550552       -0.4707850256
 C         -5.0391349147        0.8242786178        0.4885007300
 C         -4.9990246749        2.1833669568        0.2217982366
 C         -4.5016354280        2.6352923714       -0.9903068737
 C         -4.0494488542        1.7373011465       -1.9450218344
 C         -4.0843724977        0.3777450250       -1.6831117022
 H         -3.7419699366       -0.3491803406       -2.4026162392
 H         -3.6646300999        2.0892204274       -2.8890068893
 H         -4.4665829600        3.6941322854       -1.1932270612
 H         -5.3500005325        2.8847279310        0.9613045465
 H         -5.4182190380        0.4303784452        1.4169543178
 H         -2.4280984148       -2.3365530831       -0.7079396391
 H         -3.4851600148       -1.2460384371        2.5695067122
 H         -2.3122553677        0.5613661918        3.8062721595
 H         -0.3984365099        1.7196879728        2.7750049192
 H          1.0388167742        2.0729862527        1.0258555998
 C          0.1867633643        2.0549154463       -0.9331096912
 C         -0.6404593767        3.2933670003       -0.7710689975
 C          0.7672031069        3.3925581258       -1.2758208236
 H          0.9301574537        3.6311613704       -2.3161524531
 H          1.5203503967        3.7954504731       -0.6142690291
 H         -1.4495155284        3.4637911163       -1.4636311326
 H         -0.8434015529        3.6294145260        0.2341619328
 H         -0.0525489482        1.3920553201       -1.7540384096
