  62
        -98.93312178
 C          2.0341939673        1.3233393877        0.1546948675
 C          2.9679246964        0.6722714376        0.9957892507
 C          3.7321267687       -0.4466254701        0.4142251481
 C          3.4520477929       -0.8413294242       -0.8404762968
 C          4.0809370401       -1.9489311268       -1.6475763207
 C          4.3248210675       -3.2802981967       -0.9203286094
 C          5.8041203537       -3.5695539987       -0.6588450563
 H          5.9346311612       -4.6488958691       -0.5541614093
 H          6.3782480109       -3.2551772109       -1.5328392392
 C          6.3849212397       -2.9108839446        0.5913008064
 H          5.9869221031       -3.4074591015        1.4789385801
 H          7.4643249403       -3.0788913162        0.5814639604
 C          6.1237059039       -1.4089821787        0.7211870766
 H          6.8877377578       -0.9931696059        1.3813385341
 H          6.2351553524       -0.9171527278       -0.2444661013
 C          4.7520768994       -1.0733925199        1.3256734966
 H          4.8746829387       -0.3533309623        2.1408171343
 H          4.3154789609       -1.9675948156        1.7805371654
 H          3.7617032557       -3.3026808128        0.0117403896
 H          3.9314744487       -4.0793669296       -1.5510805970
 H          3.4003169275       -2.1052178619       -2.4878012094
 H          5.0189561021       -1.5802950845       -2.0704184262
 O          2.5020613295       -0.2227759493       -1.5973632744
 C          1.7690597037        0.8599559731       -1.1350964576
 O          0.9418563735        1.2942330960       -1.9561069839
 O          3.1575734588        1.0094054421        2.1965868392
 C          1.2297358179        2.4694098927        0.7447281219
 C         -0.2374769832        2.2134868417        0.5108367510
 C         -1.0583738326        3.0341234248       -0.2495621675
 C         -2.3851622771        2.6971148502       -0.4555436208
 C         -2.9202709969        1.5448245709        0.0902720877
 C         -2.1072699209        0.7170162289        0.8536342693
 C         -0.7824630993        1.0603322763        1.0637083388
 H         -0.1453106499        0.4077731744        1.6501281451
 N         -2.6452855329       -0.4643092913        1.4106751031
 S         -3.1564869298       -1.6288567262        0.3054355246
 O         -3.1239097505       -2.8785347856        1.0356670562
 O         -2.3844682655       -1.5805169519       -0.9154694659
 C         -4.8499578486       -1.1878478403       -0.0179146354
 C         -5.2329534532       -0.8256479660       -1.2943047859
 C         -6.5569752841       -0.4846148746       -1.5238796781
 C         -7.4679414409       -0.5119291126       -0.4788233964
 C         -7.0669701775       -0.8803942241        0.7969545150
 C         -5.7453964742       -1.2235260642        1.0332639009
 H         -5.3915779213       -1.5211874907        2.0061059964
 H         -7.7786737894       -0.9009778017        1.6063954439
 H         -8.4968814618       -0.2445300150       -0.6604695320
 H         -6.8701337538       -0.1980440435       -2.5149885970
 H         -4.4863011272       -0.8130564838       -2.0724966232
 H         -2.0218816752       -0.8999524776        2.0768653966
 H         -3.9518962453        1.2787516516       -0.0729070686
 H         -3.0105811202        3.3394100087       -1.0565164178
 H         -0.6511767478        3.9213651024       -0.7055725484
 H          1.4163458699        2.3975859806        1.8295688268
 C          1.6848203299        3.8571970895        0.3230483090
 C          3.1175252157        4.1200315307       -0.0302438711
 C          2.0588236140        4.1986334400       -1.0869207107
 H          1.7865046786        5.1737681178       -1.4638737300
 H          2.0033997779        3.4145056241       -1.8249684619
 H          3.5729623907        5.0360952619        0.3146880470
 H          3.7903787395        3.2746840222       -0.0440088308
 H          1.1814466549        4.6329389288        0.8920892700
