  62
        -98.94467185
 C          1.9921551199        0.7664970517        0.5658726021
 C          1.9820131067        0.0725406736       -0.6679070188
 C          2.0801410958       -1.3882470540       -0.5773442277
 C          2.1071764220       -1.9831336071        0.6285868814
 C          2.1570406853       -3.4654931212        0.8841883020
 C          3.5686665252       -4.0661751360        0.8281589644
 C          4.1753590998       -4.1736713917       -0.5713653898
 H          3.4728982847       -4.6839613841       -1.2308729843
 H          5.0628181666       -4.8039911885       -0.4878215732
 C          4.5809022015       -2.8287670932       -1.1901346526
 H          5.5787866717       -2.9141531342       -1.6258493482
 H          4.6361605130       -2.0695591045       -0.4066681767
 C          3.6456458130       -2.3316118493       -2.2924427243
 H          3.6781184964       -3.0200955158       -3.1396434010
 H          4.0051198276       -1.3579065657       -2.6343219405
 C          2.1845553203       -2.1676554770       -1.8529717162
 H          1.7098101646       -3.1424555366       -1.7414083872
 H          1.6493339697       -1.6070659889       -2.6234019566
 H          3.5110409776       -5.0702482652        1.2546616822
 H          4.2255170750       -3.4706205523        1.4662279932
 H          1.7545806887       -3.6190329864        1.8880704718
 H          1.5099449873       -3.9776851040        0.1712079652
 O          2.0721393415       -1.2816755747        1.7944118504
 C          2.0209476436        0.1028889494        1.7905698664
 O          2.0076466319        0.6204509696        2.9280179895
 H         -0.5123653644        1.1475456404        0.9323180133
 C         -0.5671119100        1.9437288521        0.2026642550
 C          0.5767421403        2.6679983408       -0.1091449554
 C          0.4781030520        3.6989136061       -1.0340421242
 C         -0.7303608695        3.9663659059       -1.6546061733
 C         -1.8543218424        3.2111137752       -1.3772049747
 C         -1.7701834067        2.1910182800       -0.4351385137
 N         -2.8976420332        1.4185351269       -0.1042142742
 S         -2.6653894456       -0.1916687008        0.3475945542
 O         -2.3179523141       -0.2345308702        1.7472020375
 O         -1.7578531620       -0.8518769685       -0.5635939867
 C         -4.3235068540       -0.8122061626        0.1284464514
 C         -5.2596918010       -0.5607252112        1.1137927729
 C         -6.5591788894       -1.0069836103        0.9330044711
 C         -6.8994638218       -1.6927087604       -0.2237655341
 C         -5.9487735294       -1.9398253782       -1.2026609462
 C         -4.6474893220       -1.4946747381       -1.0287914572
 H         -3.8722689548       -1.6685992476       -1.7579179278
 H         -6.2149322505       -2.4762450265       -2.0991244806
 H         -7.9112905681       -2.0394292895       -0.3619375578
 H         -7.2998520518       -0.8189077586        1.6933427495
 H         -4.9447214017       -0.0324101315        1.9985548975
 H         -3.6457515683        1.5091465050       -0.7784149780
 H         -2.7886156183        3.4052384839       -1.8815274548
 H         -0.7924887244        4.7644473058       -2.3788086684
 H          1.3497720822        4.2827057519       -1.2805683085
 C          1.8636524383        2.2792372499        0.5790247995
 H          1.7899604682        2.5709907706        1.6375466255
 C          3.0936169293        2.9238868818       -0.0251042951
 C          3.5374492607        4.2810399382        0.4292720445
 C          4.3227522022        3.0661136241        0.8196036913
 H          5.2859494956        2.9017451421        0.3605092391
 H          4.2614635752        2.7205612231        1.8416555930
 H          2.9500490488        4.7693806596        1.1920714005
 H          3.9667030584        4.9534007662       -0.2980858120
 H          3.2295458487        2.6591276101       -1.0673695989
 O          1.8989025304        0.6428501862       -1.7874380374
