  62
        -98.94814558
 C         -1.2624409001       -1.2510695576       -0.7302441532
 C         -0.9366327088       -2.0465812683        0.3942932146
 C          0.3391180038       -2.7708355187        0.3128358623
 C          1.1438912077       -2.5929026351       -0.7500042075
 C          2.4539779610       -3.2908951959       -1.0007183097
 C          3.6570058060       -2.6716463566       -0.2773933184
 C          3.7103075905       -2.9208863318        1.2300603509
 H          3.5873620050       -3.9865989593        1.4271507582
 H          4.7109170273       -2.6403132266        1.5655335213
 C          2.6818127598       -2.1241799293        2.0442731533
 H          2.3069713499       -1.2797131288        1.4613927256
 H          3.1676805204       -1.6944145832        2.9239897443
 C          1.4889745505       -2.9379269820        2.5455467315
 H          0.8024664071       -2.2491805369        3.0449667036
 H          1.8279090831       -3.6722795321        3.2808629795
 C          0.7103844025       -3.6749685605        1.4493693099
 H          1.2915660721       -4.5223059635        1.0838573375
 H         -0.2180580863       -4.0500333994        1.8880809492
 H          3.6688991617       -1.5950769563       -0.4639843856
 H          4.5589023357       -3.0955881970       -0.7255025398
 H          2.6324012620       -3.2345230173       -2.0768271396
 H          2.3648544359       -4.3410023545       -0.7195889724
 O          0.8296959675       -1.7543748449       -1.7735668052
 C         -0.3741697261       -1.0682636761       -1.7896182830
 O         -0.5360759489       -0.3394670896       -2.7894826111
 O         -1.6800589816       -2.1733857432        1.4023861945
 C         -2.5733464818       -0.4848324561       -0.7817282508
 C         -2.5756989161        0.5740217112        0.2942838519
 C         -3.6308567706        0.7912730542        1.1699716928
 C         -3.5410083267        1.7771994895        2.1382554454
 C         -2.4017243182        2.5510080619        2.2625333871
 C         -1.3438166833        2.3464761288        1.3836391262
 C         -1.4494644568        1.3805614140        0.3980747937
 H         -0.6293046906        1.2298796761       -0.2889989069
 N         -0.1682884750        3.1098497505        1.4581696678
 S          1.2985544166        2.3483557461        1.1817331554
 O          1.2803898939        0.9735555054        1.6206397018
 O          2.2730734474        3.2057543411        1.8264394074
 C          1.5418729682        2.4365715849       -0.5778148744
 C          2.0574592417        1.3370438542       -1.2329153975
 C          2.2777379229        1.4065631725       -2.5982741573
 C          1.9824930807        2.5757044814       -3.2809846342
 C          1.4715012473        3.6754714019       -2.6083206212
 C          1.2496872961        3.6108163936       -1.2422635413
 H          0.8498768562        4.4428187117       -0.6868739790
 H          1.2413536088        4.5810837988       -3.1463122087
 H          2.1472792016        2.6251292102       -4.3456858041
 H          2.6607402122        0.5447478847       -3.1208094997
 H          2.2537250104        0.4402472181       -0.6649500299
 H         -0.1194126696        3.7459115673        2.2410391995
 H         -2.3263957199        3.3038948281        3.0323541590
 H         -4.3659550128        1.9352213775        2.8163924960
 H         -4.5187341152        0.1845041256        1.1018696815
 H         -2.5822134498        0.0290375767       -1.7546326795
 C         -3.7549019544       -1.4283714079       -0.7165465029
 C         -5.0586461454       -1.0448176351       -1.3478886515
 C         -4.2075745710       -2.1079002938       -1.9727981146
 H         -4.5349037556       -3.1349947261       -1.9137886671
 H         -3.6773502856       -1.8707339241       -2.8838404341
 H         -5.9749090924       -1.3445080044       -0.8619689920
 H         -5.1125572726       -0.0857938925       -1.8404572190
 H         -3.7778673879       -2.0061571698        0.1998524556
