  62
        -98.94316512
 C         -1.8406406909       -0.0551168272        0.3036843612
 C         -2.7558593345       -0.6617469017       -0.5917593522
 C         -4.0352444041        0.0398063966       -0.7684600837
 C         -4.2635185145        1.2010806409       -0.1308748784
 C         -5.5063744988        2.0426587721       -0.2350024416
 C         -6.6433928911        1.5934095911        0.6931213257
 C         -7.3475960390        0.3000146214        0.2808689115
 H         -8.2530144516        0.2221485342        0.8861006246
 H         -7.6585764717        0.3739150681       -0.7616721478
 C         -6.5088467431       -0.9698789491        0.4817573992
 H         -5.6787133409       -0.7546142740        1.1585297811
 H         -7.1205287505       -1.7379500195        0.9604819190
 C         -5.9521136976       -1.5723271222       -0.8081580088
 H         -5.3452368970       -2.4422927237       -0.5454143488
 H         -6.7762757709       -1.9139505392       -1.4382427168
 C         -5.0769092178       -0.6137902698       -1.6260867516
 H         -4.5591782787       -1.1928344733       -2.3944121506
 H         -5.6962146518        0.1390872469       -2.1128904951
 H         -6.2457572465        1.4856756595        1.7050221565
 H         -7.3846476818        2.3957880371        0.7117594664
 H         -5.2169692497        3.0588830933        0.0416218393
 H         -5.8586707630        2.0507893964       -1.2668979057
 O         -3.3467718696        1.7691532144        0.6976910038
 C         -2.1348518855        1.1495325239        0.9496910719
 O         -1.4115406621        1.7620813187        1.7623192635
 O         -2.5427723452       -1.7306310101       -1.2201318418
 C         -0.4798509842       -0.6560726736        0.6267832896
 C          0.4986983967       -0.3548396107       -0.4834580724
 C          0.4297811207       -0.9946550430       -1.7172506989
 C          1.3223092217       -0.6732399326       -2.7228018992
 C          2.3091046030        0.2747342462       -2.5158381950
 C          2.3849930813        0.9222283125       -1.2890613998
 C          1.4806850795        0.6059732237       -0.2841820761
 H          1.5382007742        1.1342825348        0.6561613962
 N          3.3748395678        1.8938210365       -1.0494720494
 S          4.3251916599        1.7398893196        0.3198842371
 O          3.5615121737        2.0551704283        1.4992438781
 O          5.4786474523        2.5732861378        0.0609135971
 C          4.7984518518        0.0207552764        0.3229530106
 C          4.0763847752       -0.8830777154        1.0750178719
 C          4.4012346780       -2.2282382504        0.9989569795
 C          5.4367647342       -2.6430205955        0.1761143838
 C          6.1574446397       -1.7218080737       -0.5689057830
 C          5.8333530390       -0.3767733052       -0.5011771205
 H          6.3726173012        0.3730186435       -1.0571643010
 H          6.9657276033       -2.0479015199       -1.2033621784
 H          5.6842026746       -3.6911128040        0.1180211907
 H          3.8416462069       -2.9452078049        1.5782166814
 H          3.2823855509       -0.5174715650        1.7058431247
 H          3.9546095299        2.0918426012       -1.8528382828
 H          3.0078062423        0.5223444606       -3.3006903278
 H          1.2530024482       -1.1711843911       -3.6779274199
 H         -0.3489102253       -1.7202713000       -1.8904875608
 H         -0.1331378316       -0.1276687200        1.5255625998
 C         -0.5520694438       -2.1372330660        0.9404431546
 C          0.5223723527       -2.7567562000        1.7796668017
 C         -0.8540176735       -2.5692682390        2.3424794429
 H         -1.4773723898       -3.4381808883        2.4911791248
 H         -1.0019007055       -1.7957362547        3.0829287667
 H          0.8477497071       -3.7576667756        1.5421730559
 H          1.3052283480       -2.1090190338        2.1443330372
 H         -0.9751868709       -2.7302271260        0.1413698391
