  62
        -98.94226908
 C         -2.4991404895       -0.0660102689       -0.1391737605
 C         -1.5279630798       -0.3859561894        0.8395328697
 C         -1.0800634006       -1.7849309096        0.8812589999
 C         -1.5737677410       -2.6607593794       -0.0111138900
 C         -1.1016200618       -4.0746829097       -0.1927640598
 C          0.2281588584       -4.0692019406       -0.9759061196
 C          1.4303608979       -4.5844378112       -0.1839048993
 H          2.3244908482       -4.3373467217       -0.7608205592
 H          1.3704359173       -5.6730153211       -0.1131316492
 C          1.5823217280       -4.0259349511        1.2343235407
 H          2.6003320778       -4.2521075016        1.5582751509
 H          0.9127774076       -4.5592225006        1.9113028906
 C          1.3402914189       -2.5186187809        1.3866640805
 H          1.5057621393       -2.0045702911        0.4386426104
 H          2.0726444490       -2.1237095413        2.0944589805
 C         -0.0570402010       -2.1488958301        1.9211400502
 H          0.0350568094       -1.2611748701        2.5530960001
 H         -0.4406056216       -2.9620082398        2.5437003502
 H          0.4268287690       -3.0480011007       -1.3122646696
 H          0.1237335082       -4.6786796506       -1.8755016195
 H         -1.8699423920       -4.6098322293       -0.7515477099
 H         -0.9751865922       -4.5527598097        0.7761127003
 O         -2.5122333806       -2.3230549990       -0.9333158002
 C         -2.9692307199       -1.0201854287       -1.0425176305
 O         -3.7826919396       -0.8385686784       -1.9723431806
 O         -1.0399444395        0.4549616305        1.6399885497
 C         -2.9363779886        1.3720031713       -0.3739103908
 C         -1.7027996781        2.2433270006       -0.3902156706
 C         -1.5435602976        3.3984754906        0.3629131893
 C         -0.3524041572        4.1039287599        0.3179578094
 C          0.7094928827        3.6586794792       -0.4476698604
 C          0.5573759222        2.5041236892       -1.2077143803
 C         -0.6532522782        1.8339160299       -1.2047970704
 H         -0.7597477486        0.9412158499       -1.8048633303
 N          1.6136608820        1.9803485785       -1.9827923600
 S          2.1956059211        0.4606855182       -1.5772667297
 O          3.2337693811        0.1864425575       -2.5483588595
 O          1.1133882705       -0.4880858511       -1.5236082698
 C          2.9478083209        0.6771459980        0.0269098604
 C          2.1476627108        0.8678839886        1.1356568002
 C          2.7558069307        1.0919143484        2.3619718303
 C          4.1380005307        1.1221397076        2.4598874305
 C          4.9261413608        0.9284616670        1.3352289507
 C          4.3272025809        0.7090517072        0.1057549206
 H          4.8968518110        0.5530950768       -0.7961841593
 H          6.0013413608        0.9496840564        1.4115944109
 H          4.6023601007        1.2961267774        3.4177829106
 H          2.1354180707        1.2407703188        3.2313266802
 H          1.0729280308        0.8306065592        1.0471756800
 H          2.3967274824        2.6120725481       -2.0830200999
 H          1.6492463730        4.1903201487       -0.4537375503
 H         -0.2415680268        4.9998528599        0.9095830393
 H         -2.3411978475        3.7346658811        1.0047690091
 H         -3.3625102484        1.3735323214       -1.3915027408
 C         -4.0312916285        1.8718452620        0.5555217090
 C         -4.9696157592        0.9129095227        1.2242536089
 C         -3.9721981989        1.6766590222        2.0395887890
 H         -4.3351445685        2.4716668525        2.6745425389
 H         -3.1197923092        1.1500852317        2.4370691092
 H         -6.0128300090        1.1824489033        1.2951884887
 H         -4.8014785697       -0.1425491475        1.0640980091
 H         -4.4704568179        2.7996665823        0.2017743288
