  62
        -98.95112928
 C         -1.9883534029       -0.9159390151        0.1122222211
 C         -1.5221479491       -1.8436446296       -0.8512570910
 C         -0.4801809547       -2.7752780938       -0.3988172457
 C         -0.0651473867       -2.7276396029        0.8799419360
 C          1.0110916113       -3.5913624028        1.4696607339
 C          2.3884796820       -2.9210475552        1.3773535108
 C          2.7331704772       -2.3937285823       -0.0154296241
 H          2.0800863097       -1.5539314798       -0.2636908192
 H          3.7499093520       -1.9956477657        0.0291025599
 C          2.6418723596       -3.4373855334       -1.1371334003
 H          3.5152707220       -3.3296041375       -1.7837106267
 H          2.6688209824       -4.4440494967       -0.7170597618
 C          1.4086964972       -3.2879234330       -2.0309967887
 H          1.5654767055       -3.8864456877       -2.9329298723
 H          1.3149300106       -2.2434419347       -2.3425610024
 C          0.0777984345       -3.7347691251       -1.4106445042
 H         -0.6629375948       -3.7878996173       -2.2141894397
 H          0.1886628599       -4.7325964253       -0.9797701600
 H          3.1432310476       -3.6462430274        1.6871832865
 H          2.4160733037       -2.0796975025        2.0734830709
 H          1.0254400557       -4.5472905473        0.9497320662
 H          0.7725660866       -3.7633676918        2.5207252059
 O         -0.5677717217       -1.8538920232        1.7880844821
 C         -1.5059359954       -0.8974871635        1.4204085126
 O         -1.8201914303       -0.1157918018        2.3373449729
 O         -1.9608322838       -1.8895059629       -2.0325773889
 C         -2.9773362556        0.1549840862       -0.3186984255
 C         -2.2778483556        1.4918640014       -0.2533479397
 C         -2.7346441567        2.5760122382        0.4835140766
 C         -1.9938590162        3.7447760550        0.5352012136
 C         -0.7841488144        3.8506503147       -0.1262218005
 C         -0.3228796612        2.7748944345       -0.8780728397
 C         -1.0833813742        1.6192275814       -0.9536757155
 H         -0.7253369532        0.7908660779       -1.5481279227
 N          0.8997525240        2.8488173938       -1.5704413816
 S          2.0250195114        1.6167092236       -1.4619619408
 O          3.1920542937        2.1358954406       -2.1404743574
 O          1.4747232635        0.3928265174       -1.9825132713
 C          2.3798528877        1.4465770792        0.2766475611
 C          3.5481690715        1.9772501764        0.7873051203
 C          3.7981432190        1.8631240882        2.1454613862
 C          2.8757710255        1.2345630284        2.9689610897
 C          1.7043000385        0.7122704583        2.4424310106
 C          1.4551651192        0.8158331103        1.0836080367
 H          0.5528259359        0.4143361208        0.6498169924
 H          0.9707024653        0.2286560937        3.0694309599
 H          3.0682991472        1.1489362993        4.0268127294
 H          4.7088224895        2.2659020004        2.5586089834
 H          4.2369024431        2.4555818106        0.1099058185
 H          1.3632971148        3.7430943858       -1.4940894884
 H         -0.2001661565        4.7564051293       -0.0660270243
 H         -2.3569265564        4.5802850606        1.1140378776
 H         -3.6631881394        2.5033862689        1.0248881957
 H         -3.2004562652       -0.0626854674       -1.3737042774
 C         -4.2608299963        0.0864644707        0.4784627356
 C         -5.5295786760        0.6355693361       -0.1001900311
 C         -5.3444418223       -0.8456436337        0.0293523459
 H         -5.9124970397       -1.3747861199        0.7796169121
 H         -5.1651759165       -1.4209431708       -0.8674717794
 H         -6.2298844299        1.1230500861        0.5609278695
 H         -5.4818554560        1.0671068211       -1.0886299494
 H         -4.0985244271        0.1843011325        1.5453932544
