  62
        -98.93844842
 C         -1.9725545636       -1.2457402583        0.7543627249
 C         -1.8435441190        0.1321969983        1.0718259017
 C         -3.0001204253        0.9856692958        0.7731627621
 C         -4.1071513244        0.4259494652        0.2528687200
 C         -5.3577819859        1.1716129077       -0.1124174815
 C         -5.3355663220        1.6213132737       -1.5794671917
 C         -4.0427614909        2.3277348209       -1.9866483430
 H         -3.2188066318        1.6111277186       -1.9476755956
 H         -4.1528555331        2.6328882993       -3.0296071552
 C         -3.6909085943        3.5518913297       -1.1296520575
 H         -3.3805896331        4.3633161073       -1.7915014986
 H         -4.5749388338        3.8944114526       -0.5907978864
 C         -2.5472988357        3.3223453021       -0.1395708253
 H         -2.2207772313        4.2969879272        0.2330514963
 H         -1.7042111974        2.8687080807       -0.6674664502
 C         -2.8791525239        2.4517792264        1.0794213001
 H         -3.7865664017        2.8231846448        1.5599591512
 H         -2.0520911894        2.5393771321        1.7900569889
 H         -6.1852897149        2.2848820825       -1.7505206477
 H         -5.4595117302        0.7407936143       -2.2142396807
 H         -6.2097732170        0.5068510329        0.0407651549
 H         -5.4620413981        2.0350469299        0.5419415550
 O         -4.1964085901       -0.8947459205       -0.0379955031
 C         -3.1253161133       -1.7631905624        0.1635278656
 O         -3.3542105834       -2.9253504284       -0.2154877369
 O         -0.8047112449        0.6174438614        1.5925515104
 C         -0.7512063649       -2.0978882294        1.0517331760
 C          0.2884340334       -1.8804445986       -0.0184856761
 C         -0.0566113004       -1.9044129427       -1.3656168271
 C          0.8980839509       -1.6749441468       -2.3400627843
 C          2.2136166649       -1.4205662329       -1.9922975152
 C          2.5676755959       -1.3919959621       -0.6500444228
 C          1.6063657606       -1.6213969473        0.3265248000
 H          1.8845883350       -1.5792474456        1.3708121355
 N          3.9081879953       -1.1354787309       -0.2941786761
 S          4.5306336821        0.3786642524       -0.6549436342
 O          4.4045851128        0.6092134024       -2.0706084242
 O          5.8714849619        0.3807502571       -0.1174362877
 C          3.5109055290        1.5216982690        0.2569683575
 C          3.9544543992        1.9802806297        1.4814403268
 C          3.1358887494        2.8210563459        2.2177343670
 C          1.8916888376        3.1788828430        1.7220897644
 C          1.4602346649        2.7071330856        0.4926403311
 C          2.2740670029        1.8674294287       -0.2497718957
 H          1.9691082853        1.4801474492       -1.2089975533
 H          0.4869093210        2.9791244643        0.1192307138
 H          1.2489575598        3.8261513090        2.2974248541
 H          3.4670373509        3.1903546091        3.1752108627
 H          4.9307242577        1.6785529508        1.8259032802
 H          4.1103601238       -1.3470833724        0.6734292791
 H          2.9647891938       -1.2226451986       -2.7392584200
 H          0.6163679608       -1.6958924450       -3.3822567197
 H         -1.0837236345       -2.1024452822       -1.6386967039
 H         -0.3388087346       -1.6890354532        1.9888176141
 C         -1.0487487724       -3.5683497878        1.2951906513
 C         -0.7422868985       -4.6450736346        0.3028123405
 C          0.0747098460       -4.5287827600        1.5525922038
 H         -0.0484440326       -5.2730263809        2.3245785637
 H          1.0835092501       -4.1569797466        1.4527008201
 H         -1.4492843456       -5.4550400035        0.2112033580
 H         -0.2845930048       -4.3626537434       -0.6324373938
 H         -1.9488603052       -3.7058211359        1.8844039263
