  62
        -98.93216039
 C         -2.1774420721       -0.8991574281        0.6208942639
 C         -3.3184643961       -0.9799151862       -0.2140727603
 C         -4.3860735523        0.0010240443        0.0488918807
 C         -4.2264563207        0.9078196624        1.0284767541
 C         -5.1841195845        2.0172697207        1.3589892074
 C         -5.0454489387        3.1600259850        0.3328740225
 C         -6.2833279626        3.3794243873       -0.5373296593
 H         -5.9962400333        4.0501059709       -1.3499378966
 H         -7.0473593550        3.8873470548        0.0549412208
 C         -6.9135587526        2.1162966434       -1.1317778141
 H         -7.5952166656        2.4422339997       -1.9202345617
 H         -7.5256517361        1.6213523543       -0.3764298292
 C         -5.9349852227        1.0912096667       -1.7191148278
 H         -5.0011368057        1.5727711878       -2.0098663273
 H         -6.3782863681        0.6817210134       -2.6290076417
 C         -5.6268088681       -0.1020111972       -0.7954306745
 H         -5.4695860335       -0.9901131238       -1.4142908551
 H         -6.4886839769       -0.2979664547       -0.1518332706
 H         -4.1834930855        2.9460247296       -0.3028025099
 H         -4.8246570103        4.0923432115        0.8549554969
 H         -6.2016648543        1.6327320650        1.3685875191
 H         -4.9350437152        2.3724424128        2.3591614978
 O         -3.1112269080        0.9635891817        1.8034740727
 C         -2.0740399126        0.0654986985        1.6277235057
 O         -1.1281291325        0.2192970301        2.4283122063
 H          1.5673756804       -1.0185850530        0.7275078025
 C          1.2413862218       -1.0466480870       -0.3016696849
 C         -0.0567071370       -1.4318308951       -0.6059291939
 C         -0.4597189896       -1.4413909124       -1.9372922770
 C          0.4201880063       -1.0642090653       -2.9348815168
 C          1.7121354649       -0.6758820373       -2.6281533537
 C          2.1279291851       -0.6713011031       -1.3014244837
 N          3.4531218827       -0.3321703000       -0.9767856694
 S          3.7874079307        0.4581899679        0.4758908355
 O          3.7205539740       -0.4983720168        1.5518047339
 O          2.9645976476        1.6406927015        0.6041047980
 C          5.4884183388        0.9103827847        0.1882838751
 C          5.8092916096        2.2163664590       -0.1286075804
 C          7.1346443349        2.5402428793       -0.3749025596
 C          8.1102335093        1.5574806527       -0.3037057323
 C          7.7728224471        0.2505508194        0.0164716013
 C          6.4504154158       -0.0794525959        0.2657398130
 H          6.1419595499       -1.0781453471        0.5270927393
 H          8.5343402740       -0.5103627031        0.0734230677
 H          9.1404349195        1.8120958809       -0.4963504354
 H          7.4000616194        3.5558385075       -0.6207027601
 H          5.0176285781        2.9474203797       -0.1663358334
 H          3.9378755826        0.1100628586       -1.7464650223
 H          2.3967219173       -0.3819175857       -3.4094104335
 H          0.0948604937       -1.0691005223       -3.9643204928
 H         -1.4705153851       -1.7320075303       -2.1777658623
 C         -0.9906459544       -1.8437533089        0.5074927599
 H         -0.4399616998       -1.7356753632        1.4525545037
 C         -1.3946372946       -3.2982825323        0.3564240491
 C         -0.4090640354       -4.3620342079        0.7308044378
 C         -1.6188562415       -4.1262772713        1.5837298401
 H         -2.4114799234       -4.8591886189        1.5725576190
 H         -1.4816345863       -3.6457061157        2.5420546713
 H          0.5496278388       -4.0416378394        1.1116044872
 H         -0.3684277993       -5.2596972939        0.1333745901
 H         -2.0395256104       -3.4809830299       -0.4923990724
 O         -3.4666775181       -1.8230915291       -1.1377455219
