  62
        -98.94321632
 C         -2.5121021330       -1.0712600140       -0.1152269676
 C         -3.6403964842       -0.8323186606        0.7069992659
 C         -4.6609329899        0.0674935771        0.1549251825
 C         -4.4775530148        0.5966694068       -1.0687007213
 C         -5.4079375679        1.5721079056       -1.7282905089
 C         -5.0108812349        3.0204157738       -1.4097087269
 C         -4.7754112373        3.2833047689        0.0776808829
 H         -3.9002780909        2.7173343838        0.4054346550
 H         -4.5312785860        4.3422626173        0.1859302729
 C         -5.9688260121        2.9390676456        0.9798083189
 H         -6.1145941042        3.7526696359        1.6934870890
 H         -6.8775281393        2.8672352265        0.3810686883
 C         -5.7977753259        1.6565451517        1.7959815951
 H         -4.8422470392        1.6842734299        2.3258149948
 H         -6.5888181887        1.6250345616        2.5499868041
 C         -5.8706754786        0.3459763950        1.0021239728
 H         -5.9277086922       -0.4755274286        1.7222522009
 H         -6.7779186198        0.3335167654        0.3947941094
 H         -5.7966109006        3.6823695421       -1.7782494409
 H         -4.0893042356        3.2530404917       -1.9481987746
 H         -5.3569039629        1.4198670438       -2.8076772648
 H         -6.4249967306        1.3804372358       -1.3919034956
 O         -3.3866975326        0.3362257923       -1.8326912286
 C         -2.3711362789       -0.4914976324       -1.3760028401
 O         -1.4272108823       -0.6296145966       -2.1767102539
 H          0.9682333353       -2.0593702087       -0.9903056895
 C          0.9667493777       -1.3221379823       -0.2028866380
 C         -0.1549645780       -1.1636856070        0.5940433142
 C         -0.1272974425       -0.1970693169        1.5967071006
 C          0.9908439873        0.5905485207        1.7892811513
 C          2.1055614289        0.4367449036        0.9825360512
 C          2.0894650417       -0.5238098146       -0.0184280717
 N          3.2108867466       -0.6734937119       -0.8503275466
 S          4.7267306835       -0.8119414498       -0.1487082299
 O          5.5296383116       -1.5256766382       -1.1176508672
 O          4.6469473513       -1.3931230631        1.1714353315
 C          5.3074196879        0.8678542951       -0.0419131122
 C          5.3410673613        1.6197094765       -1.1999253024
 C          5.8006160414        2.9254011198       -1.1367494764
 C          6.2188867160        3.4534282538        0.0757561974
 C          6.1818680299        2.6846964093        1.2289077301
 C          5.7224159458        1.3779564668        1.1725250328
 H          5.6713686569        0.7446704681        2.0439528139
 H          6.5078994332        3.0970166166        2.1702884688
 H          6.5763606558        4.4700286616        0.1217279073
 H          5.8306562975        3.5263218333       -2.0314152985
 H          5.0098700975        1.1721447389       -2.1222149661
 H          3.0844398254       -1.3470948846       -1.5913410024
 H          2.9805436485        1.0500841589        1.1232744032
 H          0.9964135419        1.3341417332        2.5718217988
 H         -1.0008742158       -0.0730769805        2.2222061440
 C         -1.4118737709       -1.9774118277        0.4108157170
 H         -1.7534406740       -2.3013611987        1.4041364124
 C         -1.2375484818       -3.1999275119       -0.4643828009
 C         -0.5222361793       -4.4012340206        0.0757697336
 C         -2.0044613292       -4.4452105422       -0.1403061307
 H         -2.3897650776       -5.0394243402       -0.9552799252
 H         -2.6492160168       -4.4225327625        0.7259157901
 H          0.1112810802       -4.9689735353       -0.5891010224
 H         -0.1569185589       -4.3488118862        1.0904110127
 H         -1.1077389707       -2.9571956535       -1.5127488805
 O         -3.7855188456       -1.3469362961        1.8482752197
