  62
        -98.94659036
 C          1.2324967004        1.1972261395        0.0474051272
 C          1.8370126947        0.5190699652        1.1326548191
 C          2.5781825393       -0.7003540804        0.7936362783
 C          2.6031860717       -1.1314004467       -0.4806179275
 C          3.3176795042       -2.3564499298       -0.9842764862
 C          4.8074133021       -2.1294533217       -1.2774070221
 C          5.7005619391       -1.9902371937       -0.0439419965
 H          5.5253555719       -2.8310379315        0.6280961390
 H          6.7344980008       -2.0595689878       -0.3879074897
 C          5.5242528736       -0.6713820383        0.7215717771
 H          5.0184612393        0.0565061993        0.0830650202
 H          6.5056776811       -0.2569383635        0.9630007302
 C          4.7520640866       -0.7976190879        2.0349563609
 H          4.6563217491        0.1993132945        2.4728787376
 H          5.3163469879       -1.4186623346        2.7343287182
 C          3.3432302185       -1.3867156869        1.8847369555
 H          3.4030835802       -2.4581229276        1.6945146641
 H          2.8039609898       -1.2274615576        2.8219350506
 H          5.1594680234       -2.9855447830       -1.8575642941
 H          4.9094532125       -1.2398027371       -1.9029352892
 H          3.2103434829       -3.1699595263       -0.2662954165
 H          2.8275735068       -2.6453344520       -1.9158009330
 O          1.9481362881       -0.4906447239       -1.4825496997
 C          1.2492211073        0.6852027477       -1.2509785442
 O          0.7008100776        1.1592144282       -2.2613936133
 O          1.7572706079        0.9118428073        2.3287809674
 C          0.4811368206        2.4892556819        0.3239632887
 C         -0.9911912423        2.2383028972        0.1174338563
 C         -1.7568714703        2.8521880538       -0.8634583498
 C         -3.0909744832        2.5150654075       -1.0228488487
 C         -3.6883709931        1.5700155475       -0.2091444071
 C         -2.9310312794        0.9576836673        0.7815009546
 C         -1.5968137970        1.2926686654        0.9374444462
 H         -1.0047887499        0.8082511773        1.7040429101
 N         -3.5261500454       -0.0246228415        1.6064220919
 S         -4.0210140221       -1.4069414401        0.7970588387
 O         -5.2069824298       -1.1047018421        0.0378314548
 O         -4.1560379689       -2.4259648198        1.8130734889
 C         -2.6708297572       -1.7932775720       -0.3019939657
 C         -2.7100569759       -1.3500145488       -1.6082839958
 C         -1.6279156745       -1.6058228000       -2.4342931400
 C         -0.5316689039       -2.2955172719       -1.9419970042
 C         -0.5030169950       -2.7261738480       -0.6246275808
 C         -1.5797063357       -2.4682135538        0.2074940654
 H         -1.5961797728       -2.7936038884        1.2357676425
 H          0.3565502273       -3.2537050493       -0.2426712811
 H          0.3089497723       -2.4883163198       -2.5893163813
 H         -1.6354928941       -1.2585567701       -3.4546764174
 H         -3.5832186102       -0.8224976992       -1.9554253643
 H         -2.9342107852       -0.2907968282        2.3814881715
 H         -4.7209481883        1.2852351613       -0.3310008235
 H         -3.6729523044        2.9944191229       -1.7952351507
 H         -1.3071416109        3.5838568861       -1.5136169329
 H          0.6420038078        2.6954104024        1.3920485716
 C          1.0352319248        3.6419327001       -0.4836252762
 C          0.7896519676        5.0493107391       -0.0310099002
 C          2.1596232344        4.4532614200        0.0841270688
 H          2.9329391961        4.8014526390       -0.5840690826
 H          2.5211468471        4.1871263384        1.0668632642
 H          0.6227959576        5.8106503285       -0.7775958121
 H          0.2200255691        5.1895520285        0.8752314397
 H          1.0545024754        3.4427377025       -1.5483418532
