  62
        -98.94244126
 C         -0.7862032568       -1.9889234708       -0.2771259889
 C         -2.0057907677       -1.7971513034        0.4122427451
 C         -2.8809513516       -0.7407115745       -0.1105330375
 C         -2.5129799258       -0.0564149311       -1.2078140597
 C         -3.2754077827        1.0669458055       -1.8564317135
 C         -3.3646447004        2.3571186669       -1.0160068830
 C         -4.6623925914        2.4868279675       -0.2085673275
 H         -5.0000007939        3.5244574453       -0.2506243751
 H         -5.4364790724        1.8849062013       -0.6869790043
 C         -4.5662161166        2.1089502830        1.2729246598
 H         -4.1001663166        2.9317273475        1.8204807889
 H         -5.5829118312        1.9905846958        1.6554475857
 C         -3.7643669205        0.8467523824        1.5939597367
 H         -3.9432637147        0.5882360325        2.6403011854
 H         -2.6953640331        1.0639717877        1.5128114552
 C         -4.0860471962       -0.3705016272        0.7029195344
 H         -4.9406994603       -0.1634883922        0.0604021590
 H         -4.3227593102       -1.2344500055        1.3276789753
 H         -3.3060533092        3.1987246393       -1.7084685056
 H         -2.4986071035        2.4211916001       -0.3546069117
 H         -2.7532070501        1.2814062665       -2.7910210405
 H         -4.2807990530        0.7210545324       -2.1052418896
 O         -1.3636599479       -0.3225534788       -1.8854869418
 C         -0.4433216087       -1.2438116520       -1.4038878709
 O          0.6115322969       -1.3070006888       -2.0621907546
 O         -2.3377706961       -2.4657863053        1.4293108786
 C          0.2572669060       -2.9205045205        0.3090610014
 C          1.4724831987       -2.1108609447        0.6975832759
 C          2.7772946496       -2.5537620378        0.5218205084
 C          3.8452331685       -1.7526329343        0.8889140016
 C          3.6388759827       -0.4940747958        1.4236994400
 C          2.3368482545       -0.0467354071        1.6145769487
 C          1.2717892846       -0.8602140929        1.2688024240
 H          0.2678246797       -0.4961240717        1.4301943742
 N          2.0670357490        1.2262452631        2.1570377314
 S          1.1033379866        2.2668640730        1.2683916325
 O          1.2805716439        3.5536856421        1.9093140540
 O         -0.2497190918        1.7774904133        1.2025637648
 C          1.8359838968        2.3098573242       -0.3563663315
 C          1.0998504889        1.9158376837       -1.4521442117
 C          1.6961603887        1.9278453485       -2.7029619024
 C          3.0143485783        2.3331744226       -2.8337225935
 C          3.7401260401        2.7388263799       -1.7233445828
 C          3.1482082991        2.7277058894       -0.4718293364
 H          3.6791355550        3.0510977141        0.4089514667
 H          4.7639116459        3.0593529899       -1.8304793002
 H          3.4773879312        2.3346913678       -3.8078633182
 H          1.1285407228        1.6041206143       -3.5603456705
 H          0.0802210597        1.5972462269       -1.3118775237
 H          2.8892622997        1.7164974452        2.4806134152
 H          4.4731774987        0.1344020942        1.6954985358
 H          4.8534647960       -2.1092345614        0.7439141112
 H          2.9580853328       -3.5254487486        0.0921680547
 H         -0.1931808760       -3.3274538758        1.2272705808
 C          0.5690083293       -4.0651554799       -0.6313309728
 C          0.9717820996       -5.4031191102       -0.0886655111
 C         -0.3827346554       -5.2204159041       -0.7022588757
 H         -0.5807061177       -5.6671781221       -1.6648820093
 H         -1.2427880841       -5.1932761962       -0.0489416890
 H          1.7040250590       -5.9808939877       -0.6322353433
 H          1.0291549105       -5.5121731831        0.9838909853
 H          1.0186853888       -3.7289625505       -1.5585123018
