  62
        -98.93744081
 C          1.7574851539        0.1469059694        0.0552417965
 C          2.7960845514        0.9062930628        0.6441812215
 C          4.1367056051        0.3037567544        0.6135485641
 C          4.2950856276       -0.9119445521        0.0590027517
 C          5.6080087493       -1.6184923228       -0.1260390486
 C          6.3643179529       -1.0134664169       -1.3262451172
 C          7.6681520196       -0.3045186105       -0.9588073060
 H          8.4326064258       -1.0552062676       -0.7474538882
 H          7.9926838252        0.2574268532       -1.8372656719
 C          7.5985940545        0.6439225557        0.2420927303
 H          7.6459445047        0.0681503265        1.1676062998
 H          8.4999964705        1.2597991630        0.2124566772
 C          6.3741573766        1.5663712806        0.2997205734
 H          5.9627388604        1.7222261048       -0.6977903360
 H          6.7014165392        2.5421316311        0.6644462569
 C          5.2550116455        1.0874071917        1.2434026994
 H          5.6908551838        0.5087896986        2.0624890708
 H          4.7692617642        1.9640341201        1.6819064904
 H          6.5946413987       -1.8009111143       -2.0455272884
 H          5.6973496571       -0.3123895593       -1.8325340239
 H          6.2019067339       -1.5365250093        0.7815417483
 H          5.3883074952       -2.6709031051       -0.3066187342
 O          3.2680688294       -1.6196815628       -0.4796559271
 C          1.9759454758       -1.1136642301       -0.4992062084
 O          1.1371968457       -1.8691953704       -1.0252421951
 O          2.6087391560        2.0341597971        1.1750859678
 C          0.3523998329        0.7232310174        0.0306249748
 C         -0.5936689998       -0.1991164848        0.7562473579
 C         -0.2845496780       -0.5671524409        2.0645023176
 C         -1.0999764171       -1.4298630931        2.7685549713
 C         -2.2502169530       -1.9358497793        2.1878970680
 C         -2.5722152240       -1.5697303140        0.8872155891
 C         -1.7516543876       -0.6976155787        0.1816374447
 H         -2.0166987545       -0.4465459307       -0.8315182126
 N         -3.7276068947       -2.0743849919        0.2777379696
 S         -4.5933202817       -1.1757756163       -0.8235912327
 O         -5.9170356409       -1.7623917002       -0.7987045701
 O         -3.9396828464       -1.1656443552       -2.1080884772
 C         -4.6567700814        0.4822092927       -0.1642142746
 C         -4.9442763103        0.6668769303        1.1738455613
 C         -5.0028808211        1.9573612343        1.6744198611
 C         -4.7809471574        3.0371372929        0.8334326497
 C         -4.5039375659        2.8361908297       -0.5094709472
 C         -4.4405689102        1.5470407270       -1.0139513756
 H         -4.2221776671        1.3438800429       -2.0498019460
 H         -4.3337006038        3.6756231314       -1.1645190934
 H         -4.8249583255        4.0406078234        1.2264782777
 H         -5.2196131380        2.1169039675        2.7183664492
 H         -5.1181627533       -0.1876538455        1.8067866296
 H         -4.3192835775       -2.6410599242        0.8660185163
 H         -2.8857118602       -2.6182116396        2.7314642554
 H         -0.8418590922       -1.7113050860        3.7782998493
 H          0.6158555778       -0.1733226202        2.5158399005
 H          0.4150822163        1.6644124426        0.5966784630
 C         -0.0586434406        1.0387461590       -1.3911833433
 C         -1.0452569090        2.1320624027       -1.6661177687
 C          0.4014410638        2.3264754541       -2.0043175233
 H          0.6950349976        2.3273688245       -3.0434046206
 H          0.9891425916        2.9870025315       -1.3837074646
 H         -1.7450087069        1.9954899044       -2.4763703534
 H         -1.4473915026        2.6666592133       -0.8190729663
 H         -0.0771217781        0.1607032861       -2.0279295570
