  62
        -98.94111460
 C         -2.6634155001       -0.5205379946       -0.4734324511
 C         -3.1205953648        0.3537523027        0.5485737002
 C         -3.0111022331        1.7895425761        0.2794775772
 C         -2.5271902821        2.2076956497       -0.9035491955
 C         -2.3360910085        3.6370817468       -1.3300960153
 C         -1.0106634894        4.2418320586       -0.8461059225
 C         -0.9572504736        4.5737875695        0.6457484820
 H         -0.0768816877        5.2000174706        0.8027826313
 H         -1.8326522473        5.1640120539        0.9195643876
 C         -0.8533794124        3.3465877873        1.5627493025
 H         -0.5143238537        2.4827259992        0.9833823669
 H         -0.0894042531        3.5240380595        2.3239602876
 C         -2.1462037324        2.9891429420        2.2979374813
 H         -2.3989010922        3.7881700610        2.9988510006
 H         -1.9659134776        2.0780224580        2.8747344455
 C         -3.3540015899        2.7419216542        1.3843183180
 H         -3.7170281239        3.6847493188        0.9761969726
 H         -4.1475301474        2.2872756033        1.9823977386
 H         -0.8451064602        5.1631350607       -1.4095879214
 H         -0.2004994907        3.5489118452       -1.0885996197
 H         -2.3398887104        3.6409530764       -2.4221268584
 H         -3.1687650095        4.2446375261       -0.9750539559
 O         -2.1503043359        1.3429366757       -1.8785577095
 C         -2.1467238171       -0.0294983162       -1.6721615532
 O         -1.6716129834       -0.6669835318       -2.6355730771
 O         -3.5957150444       -0.0557044320        1.6415578367
 C         -2.6493051964       -2.0005746334       -0.1230224075
 C         -1.3207169819       -2.3145592053        0.5252747043
 C         -1.2382325645       -2.8566251142        1.8016486363
 C         -0.0099211635       -3.0327337472        2.4165910269
 C          1.1582220112       -2.6536123279        1.7793373421
 C          1.0833292823       -2.1221577356        0.5002364634
 C         -0.1427034774       -1.9764152053       -0.1256608748
 H         -0.1846610869       -1.5497031741       -1.1177761707
 N          2.2714684581       -1.6525996924       -0.1285575490
 S          2.6010132364       -0.0602640901        0.3589019017
 O          2.5436254958       -0.0134104008        1.7978702649
 O          1.7466501853        0.8706603049       -0.3494515950
 C          4.2899618656        0.1151108752       -0.1829619203
 C          5.2614799194       -0.5965959454        0.4942666400
 C          6.5769344081       -0.5047154447        0.0698402320
 C          6.8968052089        0.2923006405       -1.0196535205
 C          5.9105411516        1.0003615923       -1.6888662768
 C          4.5917330592        0.9108508378       -1.2701185508
 H          3.7918750689        1.4443686626       -1.7587326781
 H          6.1614251455        1.6202121727       -2.5345996399
 H          7.9213855250        0.3628370902       -1.3491150509
 H          7.3469251218       -1.0535531557        0.5874901881
 H          4.9650954245       -1.1971510433        1.3378717794
 H          2.1517051759       -1.6234705315       -1.1345553946
 H          2.1168887489       -2.7394729464        2.2632983109
 H          0.0353835468       -3.4476826354        3.4119767310
 H         -2.1476000387       -3.1105543458        2.3262705162
 H         -3.4314565374       -2.1309791941        0.6372224781
 C         -2.9383878725       -2.9362851659       -1.2773793768
 C         -3.4589504653       -4.3103118253       -0.9833665809
 C         -4.3587905274       -3.2842015034       -1.6021737366
 H         -4.6349577441       -3.3928656983       -2.6399620274
 H         -5.1325653249       -2.8467462510       -0.9883889652
 H         -3.1167764576       -5.1303736752       -1.5954041687
 H         -3.6260574149       -4.5718616709        0.0503727320
 H         -2.2539653688       -2.8222872444       -2.1073894606
