  62
        -98.93725137
 C         -1.1669071403       -1.4030825541        0.6223333696
 C         -2.0032825616       -1.0363240755       -0.4574583197
 C         -3.1013202865       -0.0913417457       -0.1604537863
 C         -3.2245337736        0.3951421738        1.0874876424
 C         -4.2297098309        1.3863900953        1.6108878811
 C         -3.9032417705        2.8298893138        1.1964933771
 C         -3.4926928250        3.0016337149       -0.2637383802
 H         -3.1914501550        4.0438044352       -0.4021759321
 H         -2.6093837761        2.3904113516       -0.4625796390
 C         -4.5808239908        2.6881550680       -1.2884271422
 H         -4.1773526352        2.9388207809       -2.2728944303
 H         -5.4395034581        3.3384397435       -1.1060394972
 C         -5.0690942627        1.2383898332       -1.3306689758
 H         -5.6436322058        1.1172099167       -2.2536822520
 H         -5.7530319199        1.0305472368       -0.5121756605
 C         -3.9591287163        0.1929370591       -1.3697406498
 H         -4.3985065739       -0.7710235144       -1.6543422788
 H         -3.2616915580        0.4414412938       -2.1782511047
 H         -3.0719647794        3.1800062189        1.8139499191
 H         -4.7713664252        3.4561453584        1.4100900806
 H         -4.1949124894        1.3224862595        2.7008804473
 H         -5.2305346265        1.1086735189        1.2939683437
 O         -2.3608770894        0.0542695657        2.0868357470
 C         -1.3090725099       -0.8152767561        1.8800667162
 O         -0.5756341998       -0.9821626239        2.8765878703
 O         -1.8547487035       -1.4642255309       -1.6317902222
 C          0.0232594353       -2.3275255342        0.4353416668
 C          0.8440447456       -1.8719328413       -0.7476624082
 C          1.3606253883       -2.7202503805       -1.7177446215
 C          2.1319903725       -2.2111171904       -2.7490080505
 C          2.4200850847       -0.8608529203       -2.8272860365
 C          1.9034616008       -0.0029510137       -1.8623078983
 C          1.1268152025       -0.5153702347       -0.8380381409
 H          0.7029997436        0.1615501520       -0.1122739261
 N          2.1553440090        1.3760324090       -1.9005080527
 S          2.2518260240        2.2483368080       -0.4805251410
 O          0.9391701179        2.4588252337        0.0778337904
 O          2.9765991333        3.4456500266       -0.8509506405
 C          3.2566239660        1.2526577236        0.6074274788
 C          4.5790906595        1.0631968103        0.2540066934
 C          5.3811831493        0.2647821171        1.0519016572
 C          4.8490028876       -0.3337657080        2.1842701367
 C          3.5226087166       -0.1291567499        2.5295976581
 C          2.7162525609        0.6723230461        1.7362707841
 H          1.6793453255        0.8416629201        1.9837437588
 H          3.0990473228       -0.5920585588        3.4069472618
 H          5.4702700639       -0.9610688135        2.8037160902
 H          6.4147426576        0.1084784950        0.7886148306
 H          4.9591307316        1.5534858983       -0.6273831053
 H          2.8283013090        1.6777383403       -2.5887381377
 H          3.0230388441       -0.4695786950       -3.6320113476
 H          2.5195800065       -2.8792384541       -3.5030252311
 H          1.1443732317       -3.7751256874       -1.6813026824
 H          0.6412467989       -2.1650951376        1.3352430099
 C         -0.3166317299       -3.8108577923        0.4110984002
 C         -1.6161742374       -4.3212052385        0.9570939305
 C         -1.3465675547       -4.3822789578       -0.5148827847
 H         -1.1560923681       -5.3483618412       -0.9593843672
 H         -1.8652830957       -3.6937738185       -1.1623035510
 H         -1.6079189009       -5.2401928941        1.5241497136
 H         -2.3295563040       -3.5928799989        1.3159022161
 H          0.5542870650       -4.4284891872        0.6075601877
