  62
        -98.94093791
 C          1.8599178916        1.3288168610        0.6261242106
 C          1.8140898295       -0.0043160330        1.1105313770
 C          3.0417864430       -0.7931057878        0.9700645918
 C          4.1406242508       -0.2211710758        0.4455538859
 C          5.4891644622       -0.8702993183        0.2876989994
 C          5.6398264288       -1.7072381287       -0.9897772906
 C          4.8677335884       -3.0269094384       -0.9947725951
 H          5.2282585795       -3.6061761642       -1.8471235956
 H          5.1086711947       -3.5907255709       -0.0930236661
 C          3.3461564481       -2.8648680438       -1.1143930426
 H          3.1143426328       -1.8579703423       -1.4693278122
 H          2.9629862709       -3.5626343728       -1.8621976659
 C          2.5740276443       -3.1210430331        0.1798578153
 H          1.5166260380       -2.9299826718       -0.0187810868
 H          2.6827186989       -4.1682310185        0.4707466245
 C          3.0032824920       -2.2395515401        1.3604934230
 H          3.9751648032       -2.5596691148        1.7359128498
 H          2.2667685301       -2.3481826596        2.1606426446
 H          5.3300094536       -1.1002686894       -1.8436211325
 H          6.7025933054       -1.9304649249       -1.1092443059
 H          6.2209807678       -0.0600966941        0.2560083201
 H          5.6981688012       -1.4927314807        1.1584078620
 O          4.1525213341        1.0640651673        0.0084833459
 C          3.0085773363        1.8587523809        0.0369763945
 O          3.1741448709        2.9799346920       -0.4754906892
 O          0.7897757157       -0.5059332136        1.6457067677
 C          0.5706360469        2.1211862627        0.7464321272
 C         -0.3588246813        1.7754358179       -0.3896985272
 C          0.0961404529        1.7403973576       -1.7042012041
 C         -0.7673611448        1.4150838965       -2.7336698792
 C         -2.0914142323        1.1074558489       -2.4721545345
 C         -2.5569276399        1.1400545846       -1.1626191758
 C         -1.6886979187        1.4798548218       -0.1327889249
 H         -2.0626298087        1.5033144416        0.8792310629
 N         -3.9022122143        0.8639048829       -0.8792754290
 S         -4.3642742410       -0.0580720170        0.4381324793
 O         -5.7772487720       -0.2839811110        0.2292108338
 O         -4.0007512948        0.6127629547        1.6594573509
 C         -3.4854269086       -1.5999557615        0.2686415692
 C         -2.2251416544       -1.7468050493        0.8106790589
 C         -1.5580418773       -2.9484038884        0.6300547762
 C         -2.1505956297       -3.9738087579       -0.0888998661
 C         -3.4179924168       -3.8094884065       -0.6287122011
 C         -4.0917342068       -2.6128435650       -0.4509415594
 H         -5.0833424591       -2.4480348626       -0.8405325910
 H         -3.8804371729       -4.6089797012       -1.1849837306
 H         -1.6232475736       -4.9048270634       -0.2257464627
 H         -0.5737521588       -3.0582853648        1.0569155008
 H         -1.7631057051       -0.9442342723        1.3619870499
 H         -4.4590626018        0.6285012049       -1.6880021095
 H         -2.7622204110        0.8491482707       -3.2771855967
 H         -0.4051118135        1.3947331560       -3.7504993244
 H          1.1307172370        1.9778359163       -1.9066894632
 H          0.0956110855        1.7578507891        1.6731246792
 C          0.7710313791        3.6203038427        0.9057002795
 C          0.4479769021        4.6121106124       -0.1669155484
 C         -0.4197772594        4.5212671473        1.0502516874
 H         -0.3794925871        5.3176873094        1.7778905174
 H         -1.3976756940        4.0765968042        0.9370049823
 H          1.1066998975        5.4596735274       -0.2773716877
 H          0.0549662331        4.2435914461       -1.1014030953
 H          1.6311469520        3.8501971006        1.5257218381
