  62
        -98.94443201
 C          1.9537825900        1.0992436568       -0.1999452234
 C          2.4301121125       -0.0708323889       -0.8384288903
 C          3.8854024268       -0.2768991239       -0.7887839057
 C          4.6622922564        0.6391930262       -0.1824242106
 C          6.1493892947        0.5269148284       -0.0142469947
 C          6.5077760742       -0.1624174177        1.3098125448
 C          5.7465093704       -1.4655010343        1.5536664004
 H          6.1021754918       -1.8776449608        2.5004547966
 H          4.6847936656       -1.2411024309        1.6792015053
 C          5.9123375092       -2.5145295686        0.4453530691
 H          6.0938550192       -3.4870461963        0.9077472018
 H          6.7862704649       -2.2769765797       -0.1623094322
 C          4.6922868229       -2.6748505595       -0.4637853721
 H          4.8305207892       -3.5793749768       -1.0622701645
 H          3.7961387839       -2.8201408007        0.1451286245
 C          4.4290417492       -1.5188101528       -1.4370700826
 H          5.3383864296       -1.2956561297       -1.9989726329
 H          3.6605334906       -1.8479718886       -2.1428533043
 H          7.5813410695       -0.3592933793        1.3167193012
 H          6.2826931506        0.5240508694        2.1292537256
 H          6.5726063351        1.5327798881       -0.0161522759
 H          6.5631380006       -0.0322533840       -0.8511111272
 O          4.1686948917        1.7629711810        0.3977378153
 C          2.8068717628        2.0150148163        0.4157210022
 O          2.4846817825        3.0677522316        1.0026338200
 O          1.6835889365       -0.9017670989       -1.4187268099
 C          0.4649270824        1.3999305882       -0.1805243361
 C         -0.2789847348        0.2432659371        0.4405666789
 C          0.1167757525       -0.1994181912        1.7011496337
 C         -0.5100252218       -1.2719771304        2.3032430741
 C         -1.5550540487       -1.9196520691        1.6669127340
 C         -1.9635015842       -1.4824102066        0.4134275908
 C         -1.3317224542       -0.4009220944       -0.1885055262
 H         -1.6585752328       -0.0978998364       -1.1683539168
 N         -3.0073150851       -2.1362387781       -0.2598640459
 S         -4.1986962241       -1.2691316274       -1.0461240390
 O         -5.2559648685       -2.2306425207       -1.2680635411
 O         -3.6664868302       -0.6247137869       -2.2186674935
 C         -4.7251099043       -0.0554869718        0.1495810027
 C         -5.5813968504       -0.4605066042        1.1552962142
 C         -5.9533964195        0.4526234283        2.1280290252
 C         -5.4582770391        1.7473328966        2.0836012892
 C         -4.6005426682        2.1381162173        1.0672710559
 C         -4.2273896581        1.2299130997        0.0887940736
 H         -3.5666974322        1.4984031682       -0.7187461913
 H         -4.2185784887        3.1460503062        1.0326263821
 H         -5.7443389149        2.4574600334        2.8434013885
 H         -6.6244705879        0.1535661305        2.9170271145
 H         -5.9530445829       -1.4723471914        1.1467138421
 H         -3.4037300616       -2.9164831544        0.2430659731
 H         -2.0402285782       -2.7651204002        2.1305269181
 H         -0.1848117579       -1.6082462549        3.2763131234
 H          0.9360330958        0.3056071230        2.1954775317
 H          0.3424608105        2.2776730691        0.4707141369
 C         -0.0109285498        1.7589441236       -1.5722066880
 C         -1.1587393967        2.7040284123       -1.7552801132
 C          0.2349836763        3.1440288693       -2.0872754740
 H          0.5070433046        3.2674476927       -3.1248090204
 H          0.7247493120        3.8397575768       -1.4212657270
 H         -1.8501426319        2.5244073302       -2.5656387468
 H         -1.6113820603        3.1146566662       -0.8650995444
 H          0.0964561145        0.9423902282       -2.2774934978
