  62
        -98.94471553
 C         -2.0887449414       -0.9197350587       -0.0802624094
 C         -2.8252802313       -0.4337749082        1.0329345105
 C         -3.4989836806        0.8557209822        0.8574213502
 C         -3.3639757301        1.5230086020       -0.3026050798
 C         -3.9504358994        2.8706418022       -0.6247256001
 C         -5.4061193594        2.8216619429       -1.1089733602
 C         -6.4397943397        2.5022146735       -0.0283068503
 H         -6.2982057195        3.1756863235        0.8174674696
 H         -7.4228081595        2.7143671639       -0.4532227705
 C         -6.4158278005        1.0468476935        0.4593015699
 H         -5.8683685507        0.4317029632       -0.2585214100
 H         -7.4362983407        0.6596700440        0.5000605098
 C         -5.8017659307        0.8528569634        1.8457010399
 H         -5.8032283213       -0.2157331166        2.0745687501
 H         -6.4168084606        1.3586540338        2.5930988498
 C         -4.3602410305        1.3624355727        1.9747374601
 H         -4.3463165300        2.4519105327        1.9999812799
 H         -3.9440035408        0.9846916826        2.9116907702
 H         -5.6415185389        3.8020203829       -1.5295562904
 H         -5.4811442197        2.0878209028       -1.9147541602
 H         -3.8774092492        3.5182725523        0.2496332399
 H         -3.3345235591        3.2937630718       -1.4215270900
 O         -2.6356114003        1.0360010115       -1.3401920797
 C         -1.9907621609       -0.1903435688       -1.2651268295
 O         -1.3873204509       -0.4915579393       -2.3161090393
 O         -2.9139142017       -1.0547132880        2.1250008905
 C         -1.3674418321       -2.2460979290        0.1083806309
 C          0.0849263180       -1.9708039397        0.4155028510
 C          0.5841752378       -2.1323240398        1.7029503611
 C          1.8967825979       -1.8069439304        1.9969742812
 C          2.7332998383       -1.3007912909        1.0178326013
 C          2.2396889585       -1.1270866308       -0.2680128088
 C          0.9333486684       -1.4787800202       -0.5666825789
 H          0.5541874586       -1.3176330701       -1.5649098390
 N          3.0739325389       -0.5578151513       -1.2595700688
 S          3.4054785797        1.0758697385       -1.0006061389
 O          2.3296509299        1.7267562191       -0.2855041792
 O          3.7374755001        1.6184613282       -2.3002279290
 C          4.8728131596        1.0427998779        0.0075735512
 C          6.0254048294        0.5108334473       -0.5372635486
 C          7.1747895093        0.4734749068        0.2358540016
 C          7.1522835394        0.9666623570        1.5321842415
 C          5.9875863995        1.4994049076        2.0634937913
 C          4.8339818697        1.5392528781        1.2956458012
 H          3.9032852598        1.9386383386        1.6660138510
 H          5.9715163096        1.8821850777        3.0713101813
 H          8.0478729993        0.9361271466        2.1323822916
 H          8.0824548491        0.0603228163       -0.1735283482
 H          5.9982826993        0.1444882672       -1.5498456585
 H          2.6824198790       -0.6580962912       -2.1871662288
 H          3.7535508984       -1.0340215314        1.2409437013
 H          2.2699081177       -1.9400912304        3.0008708313
 H         -0.0743888325       -2.4937280793        2.4794057410
 H         -1.8206116924       -2.6936202987        1.0030489509
 C         -1.5398618424       -3.2072976790       -1.0495405591
 C         -1.2777380831       -4.6655011191       -0.8246081288
 C         -2.6800863329       -4.1789718385       -1.0298068891
 H         -3.1769636329       -4.4068387783       -1.9608792091
 H         -3.3424231730       -4.1551567780       -0.1767688292
 H         -0.8088347833       -5.2316408995       -1.6145701187
 H         -0.9889350434       -4.9724968792        0.1690584212
 H         -1.2668028521       -2.7871533593       -2.0085879391
