  62
        -98.94067614
 C         -1.7422228184       -0.3705429110        0.4483147822
 C         -2.9228538776       -0.5246791109        1.2189687905
 C         -4.1643363057       -0.7346589954        0.4665792449
 C         -4.1316243422       -0.7586052749       -0.8780005826
 C         -5.3087281171       -0.9805199591       -1.7886570987
 C         -6.1242977828        0.2878919485       -2.0747932808
 C         -6.9780091399        0.7897270290       -0.9094570530
 H         -7.6568219803        1.5445555717       -1.3114229456
 H         -7.5902483798       -0.0287870441       -0.5295792974
 C         -6.1753245588        1.4120634325        0.2416371421
 H         -6.6434717610        2.3507726877        0.5466926217
 H         -5.1688236429        1.6557752193       -0.1066425154
 C         -6.0686195258        0.5334660359        1.4881540419
 H         -7.0604606818        0.3928784937        1.9235411134
 H         -5.4495343788        1.0544338798        2.2231309280
 C         -5.4451900843       -0.8457870931        1.2372237717
 H         -5.2135958716       -1.2976947746        2.2049148411
 H         -6.1514519617       -1.4877207163        0.7110575718
 H         -6.7880669568        0.0658264559       -2.9135545736
 H         -5.4406498874        1.0785472911       -2.3926786103
 H         -5.9605547861       -1.7455527064       -1.3658311182
 H         -4.9050616993       -1.3499700908       -2.7337404213
 O         -2.9821434400       -0.5925459941       -1.5823980849
 C         -1.7651844770       -0.3707072114       -0.9474408108
 O         -0.8150783635       -0.1973617390       -1.7320649993
 O         -2.9375332019       -0.4844262382        2.4781849940
 C         -0.4440246956       -0.1246411679        1.1951586690
 C          0.2989504682        1.0398725547        0.5904675962
 C         -0.3584198054        2.2621450492        0.4667945722
 C          0.2753239597        3.3535727179       -0.0918189068
 C          1.5909500354        3.2602627386       -0.5129671651
 C          2.2603653547        2.0517735814       -0.3811802152
 C          1.6118168739        0.9495952585        0.1591734321
 H          2.1441318550        0.0161583006        0.2241121384
 N          3.5956242894        1.9131122464       -0.7924534113
 S          4.6668195287        1.1218663091        0.2220345035
 O          4.3192254260        1.3139003339        1.6112189124
 O          5.9733166311        1.6018093895       -0.1766860456
 C          4.5372460006       -0.5999823376       -0.2089969497
 C          4.4781534651       -1.5434389158        0.7975334488
 C          4.4260159570       -2.8859213813        0.4566476758
 C          4.4356672980       -3.2589626687       -0.8788411284
 C          4.4952026447       -2.2986058739       -1.8774581137
 C          4.5500640644       -0.9550513143       -1.5431065773
 H          4.5968698571       -0.1822237254       -2.2919494706
 H          4.4979950586       -2.5931132345       -2.9145173225
 H          4.3926316736       -4.3041445687       -1.1421660260
 H          4.3762111118       -3.6337316202        1.2322663234
 H          4.4639380932       -1.2077823663        1.8223746511
 H          4.0065411086        2.7477471776       -1.1851108455
 H          2.0914320020        4.1144245179       -0.9438108872
 H         -0.2533128590        4.2898423356       -0.1924708945
 H         -1.3831994979        2.3399044242        0.8052058759
 H         -0.7660919232        0.1755187112        2.2073761394
 C          0.4223035100       -1.3633313882        1.3687195820
 C         -0.1778087502       -2.7365570241        1.3676018560
 C          0.7045367764       -2.3042581659        0.2370746924
 H          1.6932325138       -2.7329386088        0.1629615127
 H          0.2520652936       -2.0831498051       -0.7164127055
 H          0.2024906501       -3.4611659890        2.0716850213
 H         -1.2396556073       -2.8190374180        1.1862681034
 H          1.2308433679       -1.1938563018        2.0743340344
