  62
        -98.92870764
 C         -2.0241139058       -1.1676428538        0.6827342433
 C         -2.7436953083       -0.9417339430       -0.5155590194
 C         -4.0335409243       -0.2336586167       -0.3823128611
 C         -4.4496171607        0.1787392490        0.8281980491
 C         -5.7215969245        0.8774578135        1.2610467183
 C         -6.6162731729        1.5753903547        0.2395354211
 C         -5.9891701858        2.7925835860       -0.4388753362
 H         -6.6835842000        3.1521391126       -1.2015144573
 H         -5.8729450157        3.5852772285        0.3047078868
 C         -4.6238296979        2.5601204875       -1.0817957929
 H         -4.3059338873        3.5008262802       -1.5399351302
 H         -3.8900753794        2.3183270291       -0.3096775294
 C         -4.5825638184        1.4802342307       -2.1616818522
 H         -3.6028179786        1.5377313575       -2.6436591991
 H         -5.3408842367        1.6889290272       -2.9187805542
 C         -4.7677859319        0.0357283797       -1.6638459121
 H         -5.8203019368       -0.2180173890       -1.5633668130
 H         -4.3369991816       -0.6353484638       -2.4123318005
 H         -6.9651639371        0.8654938999       -0.5045527556
 H         -7.4984908204        1.9209111809        0.7854690081
 H         -6.3179427221        0.1187178279        1.7801075025
 H         -5.4158085012        1.6022550082        2.0223121105
 O         -3.7113251531       -0.0490545106        1.9546761188
 C         -2.4939311728       -0.6996416351        1.9107828537
 O         -1.9295694317       -0.7979764587        3.0211711471
 H          0.7173860582        0.1564684592        1.6113128332
 C          0.9319600142        0.0012175365        0.5610920567
 C          0.3065645390       -1.0492297412       -0.1060843624
 C          0.5834865691       -1.2157834863       -1.4575395599
 C          1.4518527323       -0.3559868258       -2.1101366301
 C          2.0626291774        0.6884734642       -1.4425332117
 C          1.7930328100        0.8695201891       -0.0918725657
 N          2.4071426014        1.9244923877        0.6037724058
 S          4.0386593880        2.1890796041        0.3448412210
 O          4.5215911662        2.8000176226        1.5634996424
 O          4.2202620879        2.9612942720       -0.8592355916
 C          4.7478210487        0.5653613844        0.1318544677
 C          4.6073659647       -0.3465933205        1.1593482453
 C          5.1207334806       -1.6229408768        0.9974694787
 C          5.7639780931       -1.9636520835       -0.1828263300
 C          5.9031108062       -1.0348174718       -1.2020993372
 C          5.3882883397        0.2424637178       -1.0469379540
 H          5.4696556956        0.9938870381       -1.8154082506
 H          6.4059145475       -1.3017194066       -2.1175934935
 H          6.1591244125       -2.9594813237       -0.3069068692
 H          5.0133185127       -2.3467210337        1.7893673840
 H          4.1067639383       -0.0498047318        2.0672073410
 H          2.1754455553        1.9625964549        1.5851552898
 H          2.7252276800        1.3741659543       -1.9452042353
 H          1.6472171270       -0.4995943204       -3.1619045098
 H          0.0959295630       -1.9894404080       -2.0217463932
 C         -0.6671476889       -1.8643876352        0.7094769046
 H         -0.3420256594       -1.7682217279        1.7569060112
 C         -0.7843509789       -3.3653413223        0.4794297251
 C         -1.1072212485       -4.0457220936       -0.8153756272
 C          0.2601786094       -4.1846115253       -0.2177131042
 H          0.5324966970       -5.1358454262        0.2148520472
 H          1.0802338571       -3.6621379450       -0.6842796492
 H         -1.7718690169       -4.8973825944       -0.7705352578
 H         -1.2569057302       -3.4398210027       -1.6927357545
 H         -1.2376577350       -3.8234678702        1.3559949813
 O         -2.3545248076       -1.3077517503       -1.6510911064
