  62
        -98.94301654
 C         -2.3344763361       -0.8950264317        0.4549587974
 C         -2.5218748338        0.1276447302       -0.5063857630
 C         -3.4999930683        1.1660863908       -0.1537087145
 C         -4.1219621594        1.1335414257        1.0379730375
 C         -5.1150261256        2.1403228383        1.5513253192
 C         -6.5535570442        1.8985603065        1.0739227844
 C         -6.8135349485        2.2219310463       -0.3978980721
 H         -7.8959405235        2.2167489459       -0.5406825066
 H         -6.4617689958        3.2310239945       -0.6148927905
 C         -6.1813149039        1.2307431584       -1.3849775517
 H         -5.9140994108        0.3118386778       -0.8580358302
 H         -6.9138182502        0.9595568965       -2.1486279053
 C         -4.9452878720        1.7610854225       -2.1115494638
 H         -4.5585260140        0.9663800701       -2.7547265352
 H         -5.2273796770        2.6021079669       -2.7490040684
 C         -3.8113669321        2.2121737532       -1.1816880396
 H         -4.0726044791        3.1538833304       -0.6995897427
 H         -2.9131960410        2.3650521563       -1.7851415116
 H         -6.8161494713        0.8564040876        1.2698176195
 H         -7.2083224783        2.5262130584        1.6827877663
 H         -4.7998154785        3.1446287265        1.2668729721
 H         -5.0969777868        2.0652798365        2.6407068195
 O         -3.8912651634        0.1535972465        1.9504802241
 C         -3.0217755623       -0.8859937434        1.6744343453
 O         -2.9424312892       -1.7357467244        2.5838179514
 O         -1.9157183459        0.2003670210       -1.6099718635
 C         -1.3965963861       -2.0761755334        0.2538427254
 C          0.0395799643       -1.6973117514        0.5292186744
 C          0.7501363781       -2.3031318765        1.5588006726
 C          2.0691353369       -1.9609642178        1.7998588460
 C          2.7041671848       -1.0068028802        1.0250869633
 C          2.0029166211       -0.3952621438       -0.0058631362
 C          0.6828431448       -0.7472520348       -0.2508734444
 H          0.1391493205       -0.2647353684       -1.0497249768
 N          2.6227897705        0.5975731428       -0.7819951910
 S          4.1610249853        0.3192762207       -1.3864511051
 O          4.2783993557        1.1843468238       -2.5398963390
 O          4.3979454990       -1.0878197893       -1.6125662828
 C          5.2394976937        0.9201923114       -0.1027099735
 C          6.2375627875        0.1064351895        0.3963686624
 C          7.0736719354        0.6007305707        1.3855608459
 C          6.8985949568        1.8934886991        1.8547508415
 C          5.8931353411        2.6991392296        1.3410683917
 C          5.0549356852        2.2114319578        0.3513431564
 H          4.2644970822        2.8060237786       -0.0755736508
 H          5.7598054385        3.7040353237        1.7082887813
 H          7.5493344487        2.2759030234        2.6252129699
 H          7.8563003178       -0.0236179247        1.7856806837
 H          6.3328733421       -0.8939768933        0.0050732452
 H          2.0177859631        0.9921473853       -1.4877262146
 H          3.7307267802       -0.7355130639        1.2099999138
 H          2.6086511778       -2.4397880296        2.6027598157
 H          0.2571407901       -3.0382790030        2.1782548890
 H         -1.6945188432       -2.8187182093        1.0060990320
 C         -1.5319915090       -2.7088244630       -1.1184005866
 C         -1.1096148986       -4.1332312810       -1.3070412108
 C         -2.5640149240       -3.7718708322       -1.3370798869
 H         -3.0852258564       -3.7973234831       -2.2823377947
 H         -3.1769934072       -4.0541023177       -0.4931666089
 H         -0.6273902373       -4.4088074810       -2.2324805901
 H         -0.7373263443       -4.6632972293       -0.4434316469
 H         -1.3515831753       -2.0185147441       -1.9318589202
