  62
        -98.94683596
 C         -1.7715262408       -1.3667945502       -0.0559903302
 C         -2.8979733307       -0.7042562898        0.4910520996
 C         -3.3183308702        0.5304989103       -0.1819676905
 C         -2.6190156600        0.9712034400       -1.2432088404
 C         -2.9057636095        2.2383989901       -1.9944823205
 C         -2.1004289393        3.4150988899       -1.4273308304
 C         -2.1961198494        3.5574295500        0.0918145196
 H         -1.6886374997        2.7087514198        0.5578744897
 H         -1.6263961092        4.4477993298        0.3690643296
 C         -3.6273265295        3.6763443904        0.6345313094
 H         -4.3039376293        3.9703900206       -0.1690776807
 H         -3.6487540093        4.4702600804        1.3842150793
 C         -4.1625327599        2.4131267306        1.3115485193
 H         -3.4325341001        2.0564455504        2.0432227295
 H         -5.0715902899        2.6791400909        1.8580102192
 C         -4.5138269301        1.2502842006        0.3750573593
 H         -5.0666666104        0.5083919408        0.9590139393
 H         -5.1605551399        1.6073341708       -0.4291192008
 H         -1.0473610893        3.2709843596       -1.6809736403
 H         -2.4472178289        4.3336902400       -1.9053541005
 H         -3.9713073195        2.4539894504       -1.9400219606
 H         -2.6262647894        2.0898348200       -3.0391241904
 O         -1.5383011601        0.3186387197       -1.7346181902
 C         -1.0614766805       -0.8360283704       -1.1333189201
 O         -0.0257833006       -1.2852920107       -1.6606958100
 O         -3.5211532909       -1.1264472596        1.5035079496
 C         -1.2615794613       -2.6062140003        0.6594980799
 C          0.2208883088       -2.4660896407        0.9011024501
 C          1.1634856385       -3.4324468310        0.5763162303
 C          2.5103212586       -3.2033839913        0.8039812605
 C          2.9471835488       -2.0008573014        1.3278994005
 C          2.0101601191       -1.0278764512        1.6560798803
 C          0.6619710090       -1.2798402708        1.4757223101
 H         -0.0531274508       -0.5133843606        1.7389849300
 N          2.3921415994        0.2403044687        2.1477960703
 S          2.1062447799        1.5289827388        1.1079831602
 O          2.5744240401        2.7011877987        1.8174543702
 O          0.7248726999        1.5360342392        0.7058984400
 C          3.1915016200        1.2070772884       -0.2713038696
 C          2.8172495198        0.2902715285       -1.2330106496
 C          3.7163284199       -0.0134404018       -2.2451074695
 C          4.9610854501        0.5952764278       -2.2775654294
 C          5.3199346002        1.5146983878       -1.3028619394
 C          4.4305682201        1.8199370481       -0.2860073895
 H          4.6630379302        2.5283196180        0.4929142605
 H          6.2874478703        1.9895669175       -1.3302452992
 H          5.6541176501        0.3517533976       -3.0674407493
 H          3.4296773898       -0.7295308618       -2.9985410495
 H          1.8416660997       -0.1704424712       -1.1954038397
 H          3.3549738293        0.2805743385        2.4554495004
 H          3.9997314389       -1.8096114017        1.4746456706
 H          3.2312700684       -3.9639507116        0.5459385706
 H          0.8483391883       -4.3585160909        0.1244442403
 H         -1.7670840814       -2.5783635801        1.6402430899
 C         -1.6540684115       -3.9241334102        0.0090303499
 C         -2.8365494114       -4.0128563399       -0.9076207902
 C         -1.4521493414       -4.1851606203       -1.4525960800
 H         -1.1435918917       -5.1741750104       -1.7584010599
 H         -1.0293763011       -3.3897871305       -2.0453780400
 H         -3.4765104617       -4.8795672897       -0.8357861203
 H         -3.3646169012       -3.0974017097       -1.1331300603
 H         -1.5073047519       -4.7661415502        0.6786053000
