  62
        -98.94294042
 C         -1.6335539909       -0.7648695301        0.8451336206
 C         -2.3772348250       -0.0580619290       -0.1263814360
 C         -2.4854296256        1.4020724328        0.0597346079
 C         -1.8165050277        1.9815640010        1.0707485577
 C         -1.7067041377        3.4472933582        1.3940626058
 C         -0.5004264681        4.0785345252        0.6759209703
 C         -0.8073454838        4.6583589948       -0.7022284045
 H         -1.4635881528        5.5253888078       -0.5956151184
 H          0.1381416694        5.0060530657       -1.1253774003
 C         -1.4412007130        3.6652875111       -1.6785001079
 H         -0.9264433328        2.7050315746       -1.5968915545
 H         -1.2708074139        4.0341512959       -2.6923303998
 C         -2.9501676811        3.4834129898       -1.4598018947
 H         -3.3131537056        4.2617751060       -0.7886267530
 H         -3.4724603439        3.6250803040       -2.4088174990
 C         -3.3693386069        2.1066375054       -0.9336619526
 H         -4.3741161325        2.1838110901       -0.5019845598
 H         -3.4456379497        1.4093055472       -1.7744730929
 H          0.2738417758        3.3141445799        0.5664911511
 H         -0.0938334517        4.8763973761        1.3013318822
 H         -2.6263531598        3.9691113767        1.1463805050
 H         -1.5468465947        3.5136427828        2.4724962453
 O         -1.0644208017        1.2669314999        1.9545448358
 C         -0.9531447134       -0.1081339663        1.8684116596
 O         -0.2308378761       -0.6239417007        2.7460650370
 H          0.8400997312       -1.0654612849        0.0880404631
 C          0.5359152219       -1.7253949169       -0.7112264966
 C         -0.6168192246       -2.4860012981       -0.5568531584
 C         -0.9821320427       -3.3529150204       -1.5767122433
 C         -0.2291967460       -3.4157509177       -2.7378419565
 C          0.8767768835       -2.6049806157       -2.9150330825
 C          1.2595030014       -1.7458675834       -1.8899447090
 N          2.3706821881       -0.9002051481       -2.0173268077
 S          2.3745952455        0.5864334913       -1.2445595066
 O          1.0544630539        1.1630057220       -1.1530262717
 O          3.3517909988        1.3639989207       -1.9802895632
 C          3.0358877693        0.2331874650        0.3689770795
 C          2.4800660623        0.8258528192        1.4838128505
 C          3.0267447644        0.5621473118        2.7294218913
 C          4.1194721873       -0.2830898174        2.8362502979
 C          4.6727459554       -0.8658086557        1.7056315682
 C          4.1294340473       -0.6059515305        0.4584466041
 H          4.5295682680       -1.0406178591       -0.4422634065
 H          5.5227491006       -1.5231803786        1.7940248236
 H          4.5395595677       -0.4895326207        3.8080085394
 H          2.5845266124        1.0077561162        3.6057700129
 H          1.6174496684        1.4635659136        1.3676776759
 H          2.7772219074       -0.8553041782       -2.9400724051
 H          1.4368864450       -2.6282890122       -3.8373726715
 H         -0.5246882555       -4.0888447608       -3.5284414635
 H         -1.8636874595       -3.9638580392       -1.4730236118
 C         -1.4146988563       -2.2633780772        0.7059383893
 H         -0.7935333488       -2.5602263078        1.5635073166
 C         -2.7202245829       -3.0250174645        0.7547926484
 C         -2.7345774530       -4.4576207413        1.1941630209
 C         -3.2955236578       -3.3939289506        2.0880408028
 H         -4.3656701520       -3.3395328161        2.2197892320
 H         -2.7329815941       -3.1127250155        2.9665111956
 H         -3.4225982942       -5.1372493366        0.7145897326
 H         -1.7916593902       -4.9048354168        1.4700737914
 H         -3.4119936458       -2.7180494893       -0.0205057299
 O         -2.9335023628       -0.6157457930       -1.1099673956
