  62
        -98.94056316
 C          1.8376311404        1.1363964097        0.2634953306
 C          2.1094103706        0.1132315900       -0.6800931197
 C          3.5327449306       -0.1724203699       -0.9191867696
 C          4.4823111005        0.5303269399       -0.2783373893
 C          5.9693121205        0.3693658200       -0.4397839992
 C          6.5708273405       -0.7538725103        0.4159189405
 C          6.2492813806       -2.1734118301       -0.0534674200
 H          6.4978803607       -2.2707166498       -1.1107947600
 H          6.9055136505       -2.8493412603        0.4984374699
 C          4.7934100006       -2.6029819402        0.1767916297
 H          4.3256991005       -1.9341141005        0.9031637999
 H          4.7733006605       -3.6060585204        0.6088729694
 C          3.9346248607       -2.6379035898       -1.0875000904
 H          2.9162060107       -2.9152095700       -0.8024722006
 H          4.3142905308       -3.4041961296       -1.7671782406
 C          3.8691482607       -1.3041128396       -1.8426751200
 H          4.8133530408       -1.1132635594       -2.3523730498
 H          3.0746014308       -1.3730629594       -2.5898175001
 H          6.2336384604       -0.6264600006        1.4472414805
 H          7.6558598005       -0.6273253602        0.4033128407
 H          6.4199455905        1.3153218299       -0.1316341288
 H          6.2082526607        0.1963113904       -1.4895028092
 O          4.1820415304        1.5139223496        0.6104766010
 C          2.8676445904        1.8136074695        0.9259755810
 O          2.7453155202        2.6959405292        1.7987541812
 O          1.2335739007       -0.5330790398       -1.3095308100
 C          0.4254518704        1.5220920495        0.6761329006
 C         -0.3692936996        0.2889791193        1.0208049401
 C         -0.2620976097       -0.2740489111        2.2879441499
 C         -0.9814752297       -1.4070833812        2.6247560095
 C         -1.8139870796       -2.0096095009        1.6974923492
 C         -1.9107596895       -1.4644940405        0.4257578194
 C         -1.2083283995       -0.3143060104        0.0968523898
 H         -1.2897435094        0.0973316500       -0.8970728900
 N         -2.7763583294       -2.0713837102       -0.5195826209
 S         -4.3885715894       -1.6891960903       -0.2790100910
 O         -4.8026148595       -2.2258291008        0.9919720488
 O         -5.0994862293       -2.1666038000       -1.4432512712
 C         -4.4101955195        0.0940882696       -0.2280151104
 C         -4.1687084096        0.7305005593        0.9730770999
 C         -4.0758229997        2.1129504693        0.9906317303
 C         -4.2194546196        2.8302444396       -0.1874287495
 C         -4.4625244894        2.1759717100       -1.3856016497
 C         -4.5522749794        0.7935731100       -1.4097869202
 H         -4.7397540493        0.2456170103       -2.3195065904
 H         -4.5750006393        2.7376987903       -2.2991304095
 H         -4.1401046196        3.9060932196       -0.1711397891
 H         -3.8822917898        2.6241588290        1.9201581005
 H         -4.0617225597        0.1373857590        1.8666845197
 H         -2.5200911393       -1.8493315899       -1.4720163308
 H         -2.3935830996       -2.8853152810        1.9407721989
 H         -0.8919785698       -1.8257951615        3.6157417394
 H          0.3952170302        0.1889331787        3.0113443702
 H          0.5551398803        2.1100265292        1.5981774108
 C         -0.3112992095        2.4187155598       -0.3092278792
 C          0.3977206005        3.5601636600       -0.9727298287
 C         -0.0718591594        2.3939992003       -1.7872610392
 H         -0.9215493993        2.5353977605       -2.4394586692
 H          0.6633894007        1.7059131304       -2.1730085293
 H         -0.1187734295        4.5025908400       -1.0716988385
 H          1.4575221905        3.6591379400       -0.7863282786
 H         -1.3331043096        2.6019566497        0.0100041108
