  62
        -98.94291605
 C         -2.6492756346       -1.1855205295        0.2506313185
 C         -2.7700955674       -0.3300875041       -0.8711904249
 C         -3.7762373105        0.7377745315       -0.7613922967
 C         -4.5232294713        0.8384996429        0.3522192756
 C         -5.5368696170        1.9129758587        0.6157923561
 C         -4.9021915941        3.1095109969        1.3385524404
 C         -3.6094057176        3.6074908687        0.6921753386
 H         -3.2703979742        4.4715749744        1.2676180248
 H         -2.8416804535        2.8361573635        0.7891878996
 C         -3.7486347027        4.0004153757       -0.7852714503
 H         -4.7997050907        4.1583256825       -1.0295304304
 H         -3.2326321943        4.9494127474       -0.9454711727
 C         -3.1463933387        2.9950599701       -1.7686898432
 H         -3.1024327293        3.4674748078       -2.7537857284
 H         -2.1203963867        2.7621282466       -1.4718050065
 C         -3.9138206085        1.6763098751       -1.9275255805
 H         -4.9656443022        1.8847050700       -2.1327984448
 H         -3.4941556643        1.1491441281       -2.7893646364
 H         -4.6787449767        2.8140875029        2.3662352084
 H         -5.6319535590        3.9206024857        1.3689847236
 H         -5.9727080467        2.2342735620       -0.3281631024
 H         -6.3241125161        1.4952936160        1.2455780178
 O         -4.4001092455       -0.0156366381        1.3988420811
 C         -3.4632223779       -1.0322012217        1.3792094674
 O         -3.4537002767       -1.7341588040        2.4098561435
 H         -0.0644072014       -0.7227885177       -1.1654862458
 C          0.4186004596       -1.0204126794       -0.2464721702
 C         -0.2623814486       -1.8391406823        0.6430428019
 C          0.3697933401       -2.2050399865        1.8257237906
 C          1.6489691899       -1.7586204097        2.1076966951
 C          2.3208630028       -0.9354393199        1.2217609706
 C          1.6977916610       -0.5630349134        0.0378185606
 N          2.3548433036        0.2967681465       -0.8581110580
 S          3.9415092459       -0.0381763745       -1.2845429634
 O          4.1342025727        0.6030673285       -2.5667734693
 O          4.2203197083       -1.4545411886       -1.2264097457
 C          4.9030669759        0.8234006607       -0.0579495177
 C          5.8663609159        0.1461132831        0.6637030189
 C          6.6114102075        0.8408202462        1.6040266792
 C          6.3819987486        2.1934698537        1.8037925883
 C          5.4123327703        2.8596885595        1.0689888393
 C          4.6648412082        2.1712480924        0.1269885827
 H          3.9044021776        2.6521070486       -0.4656617846
 H          5.2363935215        3.9115717390        1.2273639463
 H          6.9618998875        2.7319897213        2.5366334460
 H          7.3655941982        0.3247756815        2.1761868261
 H          6.0059223123       -0.9070258502        0.4781360585
 H          1.8014314240        0.5278130406       -1.6707924952
 H          3.3162191161       -0.5828915912        1.4376742571
 H          2.1275138732       -2.0516087464        3.0297370059
 H         -0.1538565170       -2.8356064338        2.5296448554
 C         -1.6541307280       -2.3342639445        0.3262323660
 H         -1.9865549168       -2.9541260095        1.1694860307
 C         -1.6491536061       -3.1956233745       -0.9226015119
 C         -1.1406870638       -4.6015062335       -0.8319482759
 C         -2.6047368186       -4.3442455817       -1.0242164028
 H         -3.0477268577       -4.5623250389       -1.9843945274
 H         -3.2671622733       -4.5181457656       -0.1884857226
 H         -0.5733477647       -4.9981428158       -1.6600589184
 H         -0.8107438101       -4.9527766222        0.1340799292
 H         -1.4411349213       -2.6426393088       -1.8290147488
 O         -2.0843614709       -0.4270417825       -1.9255381889
