  62
        -98.93407890
 C         -1.7373785887       -0.4568591919       -0.3721597391
 C         -2.9460560053       -0.5849831854       -1.1005928493
 C         -4.1951581764       -0.5593043348       -0.3217334491
 C         -4.1316607237       -0.4634704015        1.0170520622
 C         -5.2636704968       -0.4604523212        2.0138429588
 C         -6.5113821274        0.3626956052        1.6668154096
 C         -6.2406489240        1.6436130342        0.8640298801
 H         -6.7299654421        2.4836440078        1.3604445079
 H         -5.1701284984        1.8550217279        0.8461455629
 C         -6.7711210857        1.5730439306       -0.5699956510
 H         -6.8835081252        2.5899719462       -0.9536922976
 H         -7.7642325835        1.1187582019       -0.5538656741
 C         -5.8897283691        0.8112627408       -1.5592289925
 H         -6.4331149334        0.7346576202       -2.5041064104
 H         -4.9791474830        1.3823062584       -1.7607906656
 C         -5.4667712034       -0.5998541438       -1.1193935329
 H         -6.2663055971       -1.1009368772       -0.5791624997
 H         -5.2388393365       -1.1778054407       -2.0193401718
 H         -7.2169754989       -0.2584227870        1.1168390708
 H         -6.9915065760        0.6199598750        2.6125184636
 H         -4.8237239447       -0.0854689278        2.9410665134
 H         -5.5587758870       -1.4981256153        2.1953552692
 O         -2.9451849565       -0.3899132162        1.6823119729
 C         -1.7245337235       -0.3839784111        1.0207023136
 O         -0.7415205118       -0.3150282021        1.7804622692
 O         -2.9804617681       -0.7304435598       -2.3517128021
 C         -0.4379100219       -0.4761844720       -1.1555729157
 C          0.5467083844       -1.4251077663       -0.5207791677
 C          0.1668375911       -2.7513176382       -0.3255537703
 C          1.0292396043       -3.6554056461        0.2608347590
 C          2.3020686555       -3.2648810195        0.6406679295
 C          2.6952730326       -1.9490597616        0.4401269218
 C          1.8171772150       -1.0370015940       -0.1294783873
 H          2.1364073293       -0.0157815025       -0.2488037093
 N          3.9758978165       -1.5110394267        0.8121810051
 S          4.8322464704       -0.5346126538       -0.2431540300
 O          4.5132430388       -0.8349080007       -1.6199146089
 O          6.2180839559       -0.7082573292        0.1385041602
 C          4.3374947256        1.1288478059        0.1514422955
 C          4.0733032012        2.0140531056       -0.8748184805
 C          3.7350826350        3.3215500374       -0.5627881056
 C          3.6687346217        3.7185780406        0.7641170053
 C          3.9367922849        2.8167087120        1.7828003696
 C          4.2788025334        1.5092152444        1.4773155353
 H          4.4936242716        0.7822071335        2.2425195209
 H          3.8797907288        3.1287504140        2.8131627917
 H          3.4025689539        4.7357714009        1.0050659346
 H          3.5234431130        4.0232948216       -1.3540701832
 H          4.1273828362        1.6596138103       -1.8919950850
 H          4.5646682264       -2.2210953616        1.2228316993
 H          2.9815229491       -3.9717244991        1.0928310860
 H          0.7145599800       -4.6767204462        0.4156577666
 H         -0.8244865118       -3.0601309879       -0.6297566501
 H         -0.7187222335       -0.8954685419       -2.1372253238
 C          0.1465653477        0.9024160836       -1.4257161394
 C         -0.7308208919        2.1155296987       -1.4920855936
 C          0.2369791078        1.9525968806       -0.3605970947
 H          1.1130128462        2.5840538295       -0.3374463749
 H         -0.1462196609        1.7030474513        0.6160312434
 H         -0.5227096831        2.8574342296       -2.2482009316
 H         -1.7835405048        1.9828290078       -1.2885329551
 H          0.9635798081        0.8613834319       -2.1406004497
