  62
        -98.94508090
 C         -2.4504051579       -1.1560949999       -0.0658143642
 C         -3.5724955038       -0.8941510110        0.7598186302
 C         -4.5493346838        0.0636308243        0.2320789068
 C         -4.3411234736        0.6354272236       -0.9679379405
 C         -5.2590129015        1.6104514846       -1.6543856703
 C         -5.0791931437        3.0662522341       -1.2027177592
 C         -5.6074813559        3.3834098400        0.1968440850
 H         -5.6179839414        4.4706373919        0.2959407110
 H         -6.6385993218        3.0388515710        0.2812423853
 C         -4.7690827699        2.7918260181        1.3385955777
 H         -3.7856979701        2.5053148575        0.9578482186
 H         -4.6049486371        3.5548046794        2.1028668193
 C         -5.4034258262        1.5855970450        2.0310114556
 H         -6.3243017504        1.8928768011        2.5314615791
 H         -4.7093041255        1.2246405170        2.7940572478
 C         -5.7255868712        0.4159075946        1.0920363361
 H         -5.9634524632       -0.4583043153        1.7029192554
 H         -6.5899302879        0.6568137495        0.4736905549
 H         -4.0180803334        3.3208802583       -1.2587289179
 H         -5.6099750228        3.6968676367       -1.9197645770
 H         -5.0325710115        1.5510979434       -2.7211663182
 H         -6.2950528890        1.3065763649       -1.5015631908
 O         -3.2476666163        0.3627488487       -1.7283379178
 C         -2.2712251066       -0.5246106943       -1.2963993544
 O         -1.3254498582       -0.6645156626       -2.0965957140
 H          0.8603144845       -1.9784568748       -1.1140545646
 C          0.9333040287       -1.4042184196       -0.2042796998
 C         -0.1224530991       -1.3942280968        0.6923032947
 C         -0.0126592029       -0.6164360714        1.8423965108
 C          1.1288976016        0.1218735008        2.0882842968
 C          2.1830127366        0.1079644109        1.1903744800
 C          2.0743086446       -0.6466899065        0.0310265354
 N          3.1323717228       -0.6701501800       -0.8911773721
 S          3.9377293837        0.7524677137       -1.2618949991
 O          3.0887338174        1.9125629788       -1.1193264241
 O          4.5087600503        0.5290740473       -2.5723891107
 C          5.2560718280        0.8052189790       -0.0638111591
 C          5.4542649743        1.9410230207        0.6963313964
 C          6.4941493752        1.9619186580        1.6130467179
 C          7.3141525142        0.8528062189        1.7518694564
 C          7.1039438747       -0.2793456789        0.9787170827
 C          6.0670386028       -0.3060666279        0.0600651991
 H          5.8725177542       -1.1643782186       -0.5609118139
 H          7.7434843572       -1.1402052876        1.0893442574
 H          8.1215681892        0.8709026716        2.4667514178
 H          6.6591338976        2.8417756524        2.2140164274
 H          4.7887232964        2.7785040680        0.5580119672
 H          2.9261684576       -1.1962115933       -1.7280706494
 H          3.0718805750        0.6899418827        1.3705231993
 H          1.2016005711        0.7163016620        2.9864277458
 H         -0.8420533515       -0.5924725663        2.5357430110
 C         -1.4068318699       -2.1413113330        0.4341861999
 H         -1.7907616280       -2.5031284367        1.3977864862
 C         -1.2567675267       -3.3207637463       -0.5033148263
 C         -0.5637571365       -4.5593929806       -0.0219728207
 C         -2.0458368006       -4.5671382526       -0.2422581818
 H         -2.4403078189       -5.1119805253       -1.0868962617
 H         -2.6927023680       -4.5759129726        0.6225947359
 H          0.0615122240       -5.1032191888       -0.7134916681
 H         -0.2021726352       -4.5618834305        0.9950039963
 H         -1.1220123341       -3.0307059274       -1.5387333021
 O         -3.7518585758       -1.4419598180        1.8795265152
