  62
        -98.93920642
 C         -2.6379500078       -1.2592180101        0.3940923161
 C         -2.9844352283       -0.1362680536        1.1888912208
 C         -4.1518380729        0.6358520562        0.7536637899
 C         -4.8328318345        0.2494923051       -0.3404014872
 C         -6.0660666978        0.9084123249       -0.8963085162
 C         -5.7773551730        2.1102631128       -1.8059328324
 C         -5.2908909222        3.3684627621       -1.0858115849
 H         -5.3371429314        4.1881409871       -1.8055128968
 H         -5.9769420867        3.6095736051       -0.2732711577
 C         -3.8588422328        3.2720205060       -0.5409150593
 H         -3.3394282049        2.4393948398       -1.0214346748
 H         -3.3081830138        4.1800109191       -0.7973351782
 C         -3.7662110644        3.1014139893        0.9755681563
 H         -2.7105583140        3.0062131707        1.2444997091
 H         -4.1597075162        3.9927789467        1.4695493054
 C         -4.5079180292        1.8735719666        1.5201048834
 H         -5.5843769574        2.0421229213        1.4926492480
 H         -4.2026574223        1.7214040168        2.5583510893
 H         -5.0407217615        1.8123357937       -2.5555188982
 H         -6.7050974719        2.3530036368       -2.3290956080
 H         -6.5853097221        0.1486992146       -1.4844608104
 H         -6.7155804216        1.2184673429       -0.0772087799
 O         -4.4741804137       -0.8342797241       -1.0746065123
 C         -3.3575121420       -1.5996878446       -0.7523525476
 O         -3.1449273503       -2.5280541667       -1.5520541714
 O         -2.3497695129        0.1945305876        2.2276074398
 C         -1.4275078484       -2.0570883112        0.8458016862
 C         -0.1767665099       -1.4993035944        0.2160619465
 C         -0.0540914645       -1.3839861181       -1.1656943677
 C          1.0947969064       -0.8535328017       -1.7226869237
 C          2.1376925971       -0.4220391336       -0.9204209825
 C          2.0153747576       -0.5094805107        0.4592862002
 C          0.8641731626       -1.0542620023        1.0163644943
 H          0.7670382230       -1.1107061290        2.0921962018
 N          3.0647678789       -0.0765476037        1.2829577239
 S          3.8672608344        1.3522531356        0.9244042082
 O          4.4342438090        1.7845116277        2.1828191883
 O          3.0064750438        2.2943566416        0.2482509466
 C          5.1852359832        0.8345493090       -0.1560205445
 C          6.0092217976       -0.1904018420        0.2662474565
 C          7.0452825605       -0.5989721911       -0.5580576237
 C          7.2416602535        0.0230011133       -1.7821364367
 C          6.4090209527        1.0538508514       -2.1895872377
 C          5.3697129336        1.4664380673       -1.3700726394
 H          4.6944905021        2.2600971939       -1.6486392053
 H          6.5637637505        1.5371610146       -3.1409016401
 H          8.0482987859       -0.2974145025       -2.4224187443
 H          7.6950168030       -1.4001210791       -0.2445504097
 H          5.8258394035       -0.6456854574        1.2250433577
 H          2.8687501160       -0.1459805018        2.2709592154
 H          3.0305553792       -0.0021426546       -1.3535128638
 H          1.1806397491       -0.7736395777       -2.7958840847
 H         -0.8703544844       -1.7116263762       -1.7921553534
 H         -1.3616423777       -1.8653627672        1.9289507512
 C         -1.5825497162       -3.5600574662        0.6633736795
 C         -0.7593906138       -4.3759642663       -0.2832202191
 C         -0.5242056410       -4.4835794440        1.1914767533
 H         -0.8287013738       -5.3828501864        1.7049669342
 H          0.3732170421       -4.0303508351        1.5857239157
 H         -1.2513333991       -5.1893288805       -0.7942030595
 H         -0.0160076636       -3.8738976832       -0.8814165082
 H         -2.6120817979       -3.8769421431        0.7939789660
