  62
        -98.94454411
 C         -2.6196189970       -1.2213982672        0.1418177634
 C         -2.6419051044       -0.2784704140       -0.9142148830
 C         -3.4300059923        0.9399378072       -0.6732721607
 C         -4.0745998784        1.0968698214        0.4963647227
 C         -4.8549120089        2.3152416265        0.8938137582
 C         -3.9678193195        3.3257782424        1.6344412491
 C         -2.6481701070        3.6311490374        0.9248680621
 H         -2.1245886672        4.3826286121        1.5200967392
 H         -2.0211902614        2.7356287497        0.9248733571
 C         -2.8030832671        4.1396579723       -0.5151977920
 H         -3.8204203934        4.4993446700       -0.6744337339
 H         -2.1309618604        4.9881881027       -0.6597078902
 C         -2.4549187322        3.1104959331       -1.5923101629
 H         -1.4716561269        2.6798386065       -1.3804454547
 H         -2.3809596150        3.6330999623       -2.5500765011
 C         -3.4615519951        1.9664375396       -1.7705847699
 H         -4.4665693273        2.3767966937       -1.8865857394
 H         -3.1991034018        1.4337737417       -2.6893094645
 H         -4.5331549153        4.2502703942        1.7649179712
 H         -3.7370787925        2.9248710709        2.6240073431
 H         -5.2814025399        2.7740740301        0.0040820527
 H         -5.6645049120        2.0035782055        1.5558082003
 O         -4.0464674148        0.1643508668        1.4811017297
 C         -3.3122233617       -0.9987141670        1.3372333470
 O         -3.3601773903       -1.7562196559        2.3265325533
 H         -0.0455265132       -1.2207386421       -1.5039761599
 C          0.3998097598       -1.5134636822       -0.5648433873
 C         -0.3652046741       -2.2014862559        0.3664114521
 C          0.2141013557       -2.5346042212        1.5854889197
 C          1.5243829460       -2.1853839496        1.8618977207
 C          2.2793719830       -1.4895609417        0.9343772858
 C          1.7053909555       -1.1434440754       -0.2814990933
 N          2.4557876525       -0.4033592733       -1.2191614325
 S          2.9969912460        1.0991541002       -0.6868723343
 O          2.1378618182        1.6357545831        0.3445988658
 O          3.1504013237        1.9016704097       -1.8808876539
 C          4.6090392916        0.7447751157       -0.0187180777
 C          4.8943032798        1.0503529951        1.2974380902
 C          6.1576839571        0.7656394376        1.7924550446
 C          7.1076982701        0.1845503214        0.9665460023
 C          6.8058551136       -0.1139330779       -0.3540503591
 C          5.5452765031        0.1686482662       -0.8551239553
 H          5.2696595185       -0.0433009695       -1.8746411140
 H          7.5475000796       -0.5655290292       -0.9929814824
 H          8.0893140735       -0.0369251896        1.3546678731
 H          6.3940210257        0.9971060339        2.8186778732
 H          4.1211655866        1.4960165165        1.9029906979
 H          1.9706406360       -0.2922272903       -2.0994469769
 H          3.2965366797       -1.2036883191        1.1479832187
 H          1.9603278109       -2.4514593800        2.8128000134
 H         -0.3803851481       -3.0504336268        2.3258521077
 C         -1.8163589479       -2.5144841467        0.0894166427
 H         -2.1913031780       -3.1290898597        0.9183013817
 C         -2.0023386462       -3.2865243964       -1.2012257695
 C         -1.6473305867       -4.7417022209       -1.2307517492
 C         -3.0840638177       -4.3191298530       -1.2853832935
 H         -3.6208982497       -4.4266249191       -2.2159350410
 H         -3.6961370466       -4.4745291975       -0.4087233949
 H         -1.1950391409       -5.1429878743       -2.1245562390
 H         -1.2849587966       -5.1856745179       -0.3159363929
 H         -1.8091423978       -2.7015417806       -2.0902370919
 O         -2.0447707724       -0.4209724396       -2.0160114842
