  62
        -98.93860467
 C         -0.0481558366       -1.8095379380       -1.0830081512
 C         -1.1809552195       -2.3190634917       -0.3992642213
 C         -2.4399257126       -1.5815685343       -0.5599447496
 C         -2.4581572109       -0.4858405583       -1.3387561273
 C         -3.6264128093        0.4431164198       -1.5136149205
 C         -3.7251830510        1.3877407218       -0.2977513863
 C         -4.9759318470        1.1871107055        0.5591870706
 H         -5.8334685678        1.6297829359        0.0470107760
 H         -4.8221041766        1.7411781005        1.4879763319
 C         -5.3302830865       -0.2642986056        0.8973330167
 H         -5.8395853897       -0.7241602310        0.0487895124
 H         -6.0533816858       -0.2326408772        1.7151956687
 C         -4.1564372003       -1.1618485948        1.3112694621
 H         -4.4875780316       -1.8017205121        2.1321274500
 H         -3.3266380307       -0.5623176508        1.6901293344
 C         -3.6376537654       -2.0867757213        0.1932833853
 H         -4.4482024434       -2.3124406768       -0.5054036436
 H         -3.3129139937       -3.0310054739        0.6402841477
 H         -3.7132902313        2.4254726816       -0.6382938608
 H         -2.8359231347        1.2488830232        0.3232969161
 H         -4.5428412890       -0.1316712495       -1.6275698070
 H         -3.4564015710        1.0152624845       -2.4262719955
 O         -1.3659087355       -0.0468137398       -2.0101331946
 C         -0.1225958998       -0.6593086943       -1.8686549057
 O          0.7827467436       -0.0856757164       -2.4987613140
 O         -1.1332571853       -3.3536741548        0.3219843784
 C          1.2747807751       -2.4908424343       -0.7733969983
 C          1.7631847106       -1.9752843360        0.5586432251
 C          2.2674284912       -2.8209959548        1.5385678673
 C          2.6409827751       -2.3175518679        2.7730507491
 C          2.4884395204       -0.9736138315        3.0641847194
 C          1.9838073945       -0.1206141517        2.0890740745
 C          1.6610551799       -0.6203502346        0.8382581479
 H          1.2806095496        0.0502001848        0.0835629973
 N          1.7882143134        1.2466124464        2.3321452501
 S          0.4729929567        2.0108608611        1.6244682380
 O          0.2550577393        3.1815900071        2.4513401873
 O         -0.6607616296        1.1234335124        1.4970235279
 C          1.0506897665        2.5457600596        0.0294788651
 C          2.3910392970        2.8209536112       -0.1530546841
 C          2.8167900687        3.2699920275       -1.3922433584
 C          1.9014188358        3.4425409826       -2.4186466963
 C          0.5585067606        3.1707078191       -2.2158932249
 C          0.1262807132        2.7197413114       -0.9797802122
 H         -0.9074375220        2.4769473520       -0.7903753926
 H         -0.1529885129        3.2931408721       -3.0165551256
 H          2.2364562384        3.7837882993       -3.3854118357
 H          3.8622790003        3.4769682917       -1.5557282864
 H          3.0776519729        2.6667415311        0.6628873610
 H          1.9335411637        1.5444367140        3.2858026451
 H          2.7450008225       -0.5880610590        4.0390602877
 H          3.0307683847       -2.9836319850        3.5277413017
 H          2.3405029441       -3.8800060326        1.3397492772
 H          1.0350557103       -3.5586310440       -0.6436431697
 C          2.3171946163       -2.3819753192       -1.8732859067
 C          3.4825375157       -1.4462018628       -1.8001247586
 C          3.7003713350       -2.9207648611       -1.6551322408
 H          4.1771099049       -3.4560891485       -2.4620730236
 H          3.9412703179       -3.2949719378       -0.6717846511
 H          3.7867881461       -0.9569409336       -2.7120642990
 H          3.5787054046       -0.8255753199       -0.9228464304
 H          1.8839331793       -2.5325101922       -2.8560628929
