  62
        -98.94623383
 C         -1.7758727940       -1.3141324938       -0.0685120946
 C         -2.7965526472       -0.7031467402        0.6957248318
 C         -3.3306850574        0.5576837302        0.1620085423
 C         -2.8314219943        1.0495693256       -0.9869446613
 C         -3.2248958888        2.3632864811       -1.5979722399
 C         -2.3252610123        3.5027951886       -1.0967945893
 C         -2.1503374153        3.5290834184        0.4214799101
 H         -1.6197189505        2.6268033856        0.7365288239
 H         -1.5070755733        4.3786792018        0.6624991111
 C         -3.4646860612        3.6418590327        1.2069710889
 H         -3.3400303368        4.3887632135        1.9939270636
 H         -4.2593927940        3.9947997406        0.5487375927
 C         -3.9107381351        2.3465045136        1.8876954485
 H         -3.0888283677        1.9447005573        2.4864711869
 H         -4.7257587794        2.5874683555        2.5753730007
 C         -4.4125752748        1.2396018144        0.9514706502
 H         -5.1810364558        1.6404932586        0.2876233294
 H         -4.8665371879        0.4619910637        1.5729574649
 H         -1.3372422515        3.3980937073       -1.5507123238
 H         -2.7500990253        4.4512974246       -1.4298945310
 H         -3.1269104559        2.2835539044       -2.6818124617
 H         -4.2638694243        2.5751606783       -1.3532540218
 O         -1.8618805517        0.4251793691       -1.7018263108
 C         -1.2995196811       -0.7654569710       -1.2603076252
 O         -0.4091768825       -1.2193840414       -1.9988509638
 O         -3.2300134893       -1.1792621823        1.7805786913
 C         -1.1198508611       -2.5826568469        0.4469443387
 C          0.3583868873       -2.3346720899        0.6249447745
 C          1.3467928011       -3.1931378694        0.1637891860
 C          2.6849402758       -2.8712111833        0.3193444188
 C          3.0665819861       -1.6932538220        0.9337533953
 C          2.0848105244       -0.8339089593        1.4107323674
 C          0.7478561923       -1.1625427354        1.2624447460
 H         -0.0132172063       -0.4861536080        1.6330238962
 N          2.4591994485        0.3810660653        2.0192442599
 S          3.4679053581        1.3711108096        1.1155248026
 O          4.8281852785        0.9174006974        1.2627045234
 O          3.1971054887        2.7138086827        1.5799199774
 C          2.9409232635        1.1696265207       -0.5756550545
 C          1.6963923855        1.6476576967       -0.9354530516
 C          1.2593864648        1.4650582562       -2.2362552369
 C          2.0658711943        0.8027843541       -3.1480522608
 C          3.3117873631        0.3284213477       -2.7715704626
 C          3.7565359450        0.5113335406       -1.4722769321
 H          4.7182984085        0.1587671609       -1.1372943062
 H          3.9340813851       -0.1891932310       -3.4837088670
 H          1.7119170457        0.6503669339       -4.1550609063
 H          0.2836158544        1.8153916016       -2.5324333891
 H          1.0917886658        2.1582549219       -0.2010826859
 H          1.6720196601        0.9127188230        2.3623497609
 H          4.1028541833       -1.4197691114        1.0493066383
 H          3.4418364246       -3.5448820227       -0.0519513039
 H          1.0708830685       -4.1101040563       -0.3299928216
 H         -1.5642419476       -2.7655326046        1.4366742886
 C         -1.4362858534       -3.7570871718       -0.4539026244
 C         -1.4804188118       -5.1471937162        0.1046964994
 C         -2.7504604736       -4.4583424762       -0.2922942895
 H         -3.2678889592       -4.7956462250       -1.1778028026
 H         -3.4083718502       -4.1046374823        0.4882318141
 H         -1.1277074390       -5.9616931839       -0.5097572257
 H         -1.2792714157       -5.2702321255        1.1581813441
 H         -1.0628458160       -3.6194899058       -1.4622134037
