  62
        -98.94180919
 C         -2.4085381626       -1.0384959632        0.2805252053
 C         -1.9219189925       -0.1586695082       -0.7179211009
 C         -2.4400434490        1.2158283180       -0.6601142012
 C         -3.3165946625        1.5682011551        0.2966408096
 C         -3.9436770602        2.9250377045        0.4690603698
 C         -3.0741711709        3.9164655324        1.2548421006
 C         -1.8480673056        4.4423528546        0.5070734751
 H         -2.1569631530        4.8359632665       -0.4616200110
 H         -1.4539929033        5.2782684252        1.0883613821
 C         -0.7317655593        3.4061264663        0.3115272838
 H          0.2310315191        3.8533516792        0.5676640351
 H         -0.8863154789        2.5709079265        0.9990361457
 C         -0.6151667106        2.8615770541       -1.1120459213
 H         -0.3299822423        3.6687283942       -1.7894258116
 H          0.1782713012        2.1101898891       -1.1278653098
 C         -1.8960325457        2.2064486264       -1.6442282923
 H         -1.6475776825        1.6648980081       -2.5598873031
 H         -2.6428762863        2.9653564158       -1.8755695073
 H         -3.7066877091        4.7678054702        1.5167986652
 H         -2.7571797941        3.4406716945        2.1860660280
 H         -4.1852075494        3.3448026682       -0.5076891816
 H         -4.8734750291        2.7707810703        1.0210306142
 O         -3.7529489842        0.6950540841        1.2441410053
 C         -3.2871146240       -0.6101859820        1.2786095820
 O         -3.7189397343       -1.2806463402        2.2383136204
 O         -1.1002342305       -0.4859552015       -1.6108900703
 C         -1.9409639684       -2.4808454585        0.3623586660
 C         -0.4490029811       -2.5615608215        0.1412118629
 C          0.1472121404       -3.3892179765       -0.8005112799
 C          1.5253811559       -3.4313356612       -0.9215606948
 C          2.3363985438       -2.6530579392       -0.1172264497
 C          1.7508469428       -1.8033829658        0.8139274704
 C          0.3699334326       -1.7744754890        0.9424896906
 H         -0.0867557125       -1.1210801189        1.6767398924
 N          2.5472109606       -1.0105696245        1.6552663023
 S          3.9458864311       -0.2506826732        1.1558764798
 O          4.9058579760       -1.2422893915        0.7396868684
 O          4.3254216097        0.5764139822        2.2785866107
 C          3.5160158113        0.7898455484       -0.2272608051
 C          3.4881004077        0.2611833776       -1.5021190194
 C          3.1493807499        1.0876482664       -2.5618111053
 C          2.8547944838        2.4221996715       -2.3322351110
 C          2.8916296606        2.9395096423       -1.0462464452
 C          3.2183032982        2.1159766099        0.0183740078
 H          3.2658831371        2.4786493250        1.0326660654
 H          2.6644733470        3.9788732448       -0.8713621316
 H          2.5946307196        3.0629401948       -3.1597935636
 H          3.1169571424        0.6861518588       -3.5617764519
 H          3.7372167766       -0.7760290597       -1.6500142156
 H          2.0234538443       -0.4166744646        2.2798602219
 H          3.4108995662       -2.6954270851       -0.1902700732
 H          1.9763142275       -4.0838578309       -1.6540129832
 H         -0.4643096094       -3.9909669926       -1.4519028328
 H         -2.1369774881       -2.7856793692        1.4044856646
 C         -2.7319894003       -3.4356774676       -0.5206028317
 C         -4.1429084654       -3.1301587279       -0.9240045231
 C         -3.0512012355       -3.1171977663       -1.9492212537
 H         -3.0208076839       -3.9181858050       -2.6733462994
 H         -2.7154016682       -2.1670648758       -2.3329933936
 H         -4.8562952320       -3.9406019343       -0.9381598901
 H         -4.5639007191       -2.1866253994       -0.6078732004
 H         -2.5194367307       -4.4742587630       -0.2862284334
