  62
        -98.93609035
 C         -1.7582273431       -1.3065175140        0.2225219666
 C         -2.1278735011       -0.1910809394       -0.5627794230
 C         -3.5033657282        0.3192077995       -0.3876141050
 C         -4.3074418738       -0.2494818382        0.5274570149
 C         -5.7294557964        0.0968417803        0.8894116561
 C         -6.0624412748        1.5899428999        1.0322014093
 C         -6.9511692883        2.1252406708       -0.0918767750
 H         -7.7029303283        1.3697846147       -0.3298698144
 H         -7.4812498658        3.0082217260        0.2722078888
 C         -6.2134643521        2.5234719131       -1.3689962502
 H         -6.9657804400        2.7476462186       -2.1289565956
 H         -5.6505147656        3.4421596206       -1.1894139376
 C         -5.2531447697        1.4700723579       -1.9248838136
 H         -5.1143281637        1.6744649295       -2.9887182283
 H         -5.6906172107        0.4754643710       -1.8471750239
 C         -3.8680924068        1.4890619247       -1.2612619751
 H         -3.0929599604        1.5108672040       -2.0335641552
 H         -3.7421304043        2.4112330870       -0.6861330584
 H         -5.1436735319        2.1707499902        1.0988971836
 H         -6.5962265291        1.7228848355        1.9746705973
 H         -5.9113581079       -0.4155442248        1.8369361964
 H         -6.3960012589       -0.3626917378        0.1552669214
 O         -3.9027278753       -1.3100188475        1.2823784150
 C         -2.6481214226       -1.8670242082        1.1448538348
 O         -2.4400614940       -2.8468022301        1.8875502438
 O         -1.3638957642        0.3801650920       -1.3889404008
 C         -0.4003678041       -1.9875418801        0.1421092743
 C          0.6587551950       -1.2348502710        0.9109510390
 C          1.3582898978       -1.8408065781        1.9474945167
 C          2.3596219874       -1.1585062689        2.6172813004
 C          2.6839395945        0.1397050336        2.2665864728
 C          1.9836137250        0.7552102300        1.2375132885
 C          0.9855524931        0.0681836244        0.5638461605
 H          0.4475564593        0.5516697692       -0.2379849005
 N          2.3218269736        2.0719179537        0.8563540921
 S          3.9062300422        2.2574685343        0.3363479198
 O          4.7740122505        2.3458746656        1.4840494524
 O          3.9012558667        3.4049997008       -0.5432272510
 C          4.2476371512        0.7597214964       -0.5706976088
 C          5.0820570401       -0.1966888182       -0.0296994995
 C          5.2701593133       -1.3857200760       -0.7157666100
 C          4.6187651846       -1.5986466456       -1.9203909829
 C          3.7834482268       -0.6274617549       -2.4507282477
 C          3.5915144936        0.5629714989       -1.7695461173
 H          2.9498364792        1.3395462327       -2.1548148794
 H          3.2760946112       -0.7936144171       -3.3877159738
 H          4.7630628402       -2.5271154963       -2.4502250865
 H          5.9188084635       -2.1432676088       -0.3066963329
 H          5.5664197549        0.0092968205        0.9105757948
 H          1.6878952799        2.4480209933        0.1647859669
 H          3.4673186929        0.6847849085        2.7681874003
 H          2.8941117352       -1.6429738233        3.4200007203
 H          1.1062335705       -2.8515502858        2.2332517848
 H         -0.5354224724       -2.9631700479        0.6272609054
 C          0.0648864479       -2.2213859093       -1.2836039374
 C          1.0793245803       -3.2905705323       -1.5489110333
 C         -0.3403724308       -3.4770415517       -1.9919522998
 H         -0.5669951307       -3.4228715167       -3.0461811725
 H         -0.9576159559       -4.1792684383       -1.4502041545
 H          1.8328896499       -3.1082267510       -2.2986599824
 H          1.4271684826       -3.8694172660       -0.7070814170
 H          0.1209270257       -1.3143589060       -1.8702323317
