  62
        -98.94458743
 C          1.3212531405        1.2620727298       -0.5771352454
 C          2.6757690450        1.5186779322       -0.2505034142
 C          3.6076204468        0.4054298365       -0.4610599477
 C          3.1502444481       -0.7659208141       -0.9399703556
 C          3.9774298185       -1.9915333628       -1.2193371422
 C          4.2266250588       -2.8704741905        0.0140157170
 C          5.2179608229       -2.3007125279        1.0294313056
 H          5.4653951703       -3.1067307744        1.7231732383
 H          6.1389913726       -2.0183361741        0.5184515909
 C          4.6851123991       -1.1056650623        1.8322847843
 H          4.9193932832       -1.2440805665        2.8902151070
 H          3.5966760159       -1.0651723537        1.7478773871
 C          5.2627547749        0.2466643802        1.4147554971
 H          4.7911199702        1.0232526818        2.0222152804
 H          6.3358029661        0.2663316813        1.6182463919
 C          5.0393880302        0.6001237485       -0.0615380388
 H          5.2833255622        1.6561146288       -0.2017719961
 H          5.6956710514        0.0034064638       -0.6947201705
 H          4.6145374163       -3.8278478448       -0.3412998964
 H          3.2706121180       -3.0595044980        0.5068049215
 H          3.4232904627       -2.5781670116       -1.9549176799
 H          4.9319136808       -1.6980527838       -1.6572818496
 O          1.8437422581       -0.9690561590       -1.2533973689
 C          0.8948428813        0.0280563156       -1.0696273177
 O         -0.2599246945       -0.3078489125       -1.3873986842
 H         -2.2418781414        1.2692306617       -0.4432160043
 C         -1.8558180906        1.3687498235        0.5565368045
 C         -0.6050371259        1.9224161939        0.7825717584
 C         -0.1425095134        2.0222747861        2.0930373535
 C         -0.9158500748        1.5851851490        3.1507873999
 C         -2.1595880701        1.0224520259        2.9218462589
 C         -2.6259313179        0.9101704343        1.6170461380
 N         -3.8836587478        0.3450666390        1.3618128394
 S         -4.1888838046       -0.5512383842       -0.0100069637
 O         -4.2900411594        0.3108278552       -1.1609402078
 O         -5.3985256401       -1.2802221607        0.3208854979
 C         -2.8632196536       -1.7281770792       -0.2155345536
 C         -2.6062394144       -2.1867032444       -1.4901051711
 C         -1.6334303863       -3.1542300879       -1.6751162378
 C         -0.9322272219       -3.6432740452       -0.5856637606
 C         -1.2025760093       -3.1740927509        0.6892663444
 C         -2.1814331616       -2.2127036665        0.8812829452
 H         -2.3984117447       -1.8352585498        1.8675367853
 H         -0.6502739509       -3.5497261404        1.5364654723
 H         -0.1649453350       -4.3875574666       -0.7324776863
 H         -1.4162966797       -3.5118782880       -2.6690662900
 H         -3.1579813924       -1.7639203644       -2.3143967674
 H         -4.3584444304       -0.0366608051        2.1666235593
 H         -2.7661907105        0.6753791853        3.7446390097
 H         -0.5476171380        1.6761817833        4.1614042479
 H          0.8372518787        2.4447174798        2.2678782647
 C          0.2996364081        2.3622119962       -0.3410227924
 H          0.8801497838        3.2290506304        0.0041070339
 C         -0.4371638486        2.7449200401       -1.6060674917
 C         -1.1821979695        4.0442131817       -1.6532524417
 C          0.0799824362        3.8744305531       -2.4431799783
 H          0.0101752588        3.7929518775       -3.5175841336
 H          0.9690024503        4.3838345585       -2.1008349043
 H         -2.1231482641        4.0781880839       -2.1810994667
 H         -1.1493797650        4.6689947022       -0.7733369537
 H         -0.8661738557        1.8986662241       -2.1291678889
 O          3.0861122144        2.6246475680        0.1926356563
