  62
        -98.94340935
 C         -1.9708590415       -0.8612093653        0.0370852723
 C         -2.2381110063        0.1038447474        1.0351693789
 C         -2.4315510286        1.4807100523        0.5649906911
 C         -2.3082472020        1.7492956074       -0.7479068968
 C         -2.5102588042        3.1009869408       -1.3683791610
 C         -3.9681945806        3.3041638300       -1.8040894480
 C         -4.9895765759        2.9522901836       -0.7226105106
 H         -5.9807429249        3.1609950841       -1.1306689114
 H         -4.9414709113        1.8791904510       -0.5243123779
 C         -4.8070834437        3.7184530422        0.5949023593
 H         -5.7834651709        4.0702845396        0.9342634651
 H         -4.1843384148        4.5980964708        0.4288120105
 C         -4.2134112832        2.8877018525        1.7340453018
 H         -4.7782035174        1.9584819560        1.8433649792
 H         -4.3279968990        3.4521210163        2.6632757567
 C         -2.7271754263        2.5325086631        1.5971674435
 H         -2.1461736276        3.4364936033        1.4007314955
 H         -2.3932839970        2.1147102925        2.5519816285
 H         -4.0961311395        4.3458216905       -2.1037868377
 H         -4.1591965610        2.6727164249       -2.6746562191
 H         -2.2213322846        3.8677965817       -0.6520151806
 H         -1.8612730482        3.1739779890       -2.2427540087
 O         -2.0304632572        0.7998301373       -1.6767246505
 C         -1.8441945483       -0.5238136850       -1.3104226084
 O         -1.5840302239       -1.2882970338       -2.2595753477
 H          0.4819688827       -0.7735534876        0.4077135386
 C          0.7011514538       -1.7876403416        0.1059688381
 C         -0.3221998386       -2.7257076596        0.0605349522
 C         -0.0099316253       -4.0275596634       -0.3105962379
 C          1.2914249323       -4.3686389332       -0.6378490840
 C          2.3019456634       -3.4262919194       -0.6107974688
 C          1.9985198932       -2.1178757272       -0.2459445090
 N          2.9927838466       -1.1267891518       -0.2702881708
 S          2.7505893456        0.3845772901        0.4183407877
 O          2.4773512477        0.2651887919        1.8350044180
 O          1.7819997738        1.1110192293       -0.3650100546
 C          4.3721610080        1.0841490296        0.1727543478
 C          4.6915264670        1.5890142193       -1.0736363936
 C          5.9585442654        2.1103999838       -1.2813604369
 C          6.8808011787        2.1179565393       -0.2451878394
 C          6.5454835064        1.6103468368        1.0008531835
 C          5.2800473094        1.0863565316        1.2146937892
 H          4.9706394930        0.6897121207        2.1682230537
 H          7.2630059992        1.6206816343        1.8053297232
 H          7.8658432618        2.5251813267       -0.4095259916
 H          6.2209731689        2.5087603850       -2.2481424001
 H          3.9380793240        1.5698549626       -1.8440724219
 H          3.9299422022       -1.4770363706       -0.1343440787
 H          3.3128518447       -3.6912705855       -0.8787355046
 H          1.5206722433       -5.3843501469       -0.9223773347
 H         -0.7864122931       -4.7742821928       -0.3453725065
 C         -1.7173850388       -2.2976721063        0.4501904591
 H         -1.7784705427       -2.3008229475        1.5500690292
 C         -2.7950667266       -3.2099977300       -0.1008596124
 C         -3.2600018462       -4.4017206258        0.6802085952
 C         -4.1466804144       -3.2016100911        0.5464416975
 H         -5.0211014967       -3.2688777498       -0.0831364591
 H         -4.2763900837       -2.5616193426        1.4073474448
 H         -2.7989495213       -4.5827114040        1.6395271002
 H         -3.5297341144       -5.2973175377        0.1410605617
 H         -2.7576836025       -3.2853116856       -1.1818450966
 O         -2.3094409908       -0.1752253917        2.2649500785
