  62
        -98.93490133
 C         -1.9481668389       -0.9648455712       -0.2626755794
 C         -2.8067309990       -0.5184201411        0.7723620405
 C         -3.3116062191        0.8641266689        0.6945351702
 C         -2.9041056091        1.6380725287       -0.3279291700
 C         -3.3087948393        3.0547008886       -0.6370749403
 C         -4.7144140793        3.1452511783       -1.2565563604
 C         -5.7634712692        2.2414087284       -0.6129321502
 H         -6.6686998792        2.2973324481       -1.2232708003
 H         -5.4136738391        1.2079222084       -0.6467304500
 C         -6.1447410593        2.6026473286        0.8206008597
 H         -6.9358443092        1.9148612886        1.1297809998
 H         -6.5582293494        3.6135990986        0.8359664894
 C         -5.0178036493        2.5273948289        1.8518155697
 H         -5.4774409694        2.6024299491        2.8417502397
 H         -4.3469073994        3.3769134390        1.7573851096
 C         -4.2246030192        1.2238387990        1.8422639401
 H         -3.5965405992        1.1921242393        2.7410131301
 H         -4.9182196691        0.3817178590        1.9456236102
 H         -4.6348596392        2.8622395381       -2.3089379203
 H         -5.0462574994        4.1837142583       -1.2102753906
 H         -2.5832512093        3.4376234685       -1.3582747803
 H         -3.2360117594        3.6638604088        0.2591625096
 O         -2.0619655091        1.1768639986       -1.2942693398
 C         -1.5605836689       -0.1138749914       -1.2977350295
 O         -0.8182143289       -0.3539405615       -2.2707938395
 O         -3.1605334990       -1.2600667409        1.7300167006
 C         -1.4461808688       -2.3938335811       -0.1476893291
 C         -0.1355192788       -2.4309192808        0.6026096710
 C         -0.0139043388       -3.1688757306        1.7743089212
 C          1.1791370212       -3.1883264503        2.4741552612
 C          2.2662010411       -2.4627058503        2.0242835511
 C          2.1564381911       -1.7251187506        0.8496968710
 C          0.9645836012       -1.7216261308        0.1400988909
 H          0.8937637211       -1.1382981310       -0.7658388292
 N          3.2534025211       -0.9977095106        0.3622412309
 S          2.9680284510        0.4795344692       -0.4079447595
 O          1.9228294009        1.2034323993        0.2813561403
 O          2.7864650411        0.2407108689       -1.8164082194
 C          4.5461152709        1.2717655895       -0.1460937596
 C          5.5959824109        0.9466781994       -0.9846277894
 C          6.8350312809        1.5266720795       -0.7638018895
 C          7.0037891507        2.4166886698        0.2866493503
 C          5.9407807007        2.7354086599        1.1181821102
 C          4.6990824807        2.1574558597        0.9035634803
 H          3.8419091807        2.3798722097        1.5187856502
 H          6.0734946606        3.4302619400        1.9316850701
 H          7.9689247007        2.8670693799        0.4565078903
 H          7.6624526909        1.2832382095       -1.4104752894
 H          5.4128622911        0.2574477492       -1.7923855693
 H          4.0088902810       -0.9302381504        1.0308765509
 H          3.1945897911       -2.4641661101        2.5749464012
 H          1.2591986912       -3.7626856401        3.3844793514
 H         -0.8706374787       -3.7117481606        2.1452389512
 H         -2.1940081087       -2.9130235711        0.4684601510
 C         -1.3235126686       -3.1257881114       -1.4685264389
 C         -1.3720359085       -4.6234702614       -1.4737908086
 C         -2.5180042485       -3.8340565316       -2.0302573688
 H         -2.6680318485       -3.8171584619       -3.0991704188
 H         -3.4347887986       -3.7943757216       -1.4600801188
 H         -0.7315925484       -5.1546104915       -2.1608147284
 H         -1.5144355985       -5.1228110812       -0.5274828885
 H         -0.6578782386       -2.6391125115       -2.1695045090
