  62
        -98.94566598
 C         -2.6664789299       -1.0897708000        0.2666969587
 C         -2.5082887397       -0.3016970394       -0.8995272309
 C         -3.1625736296        1.0124312306       -0.8706426503
 C         -3.8965893197        1.3731263301        0.1979057899
 C         -4.6479572396        2.6667390201        0.3605291105
 C         -3.7902158096        3.8235628697        0.8914113211
 C         -2.7765378795        4.3902091902       -0.1036739285
 H         -3.2843294194        4.6423734407       -1.0349602184
 H         -2.3925797994        5.3196996799        0.3211681421
 C         -1.5924997195        3.4579868902       -0.3994568488
 H         -0.6563422395        4.0198503901       -0.3512014984
 H         -1.5336680596        2.6855643498        0.3717683308
 C         -1.6427747494        2.7820199909       -1.7699779792
 H         -1.5685223693        3.5399156613       -2.5531191188
 H         -0.7713574795        2.1257260009       -1.8567479794
 C         -2.9065813995        1.9453321112       -2.0148328098
 H         -3.7634687094        2.5985598813       -2.1782861895
 H         -2.7478766994        1.3397745116       -2.9102597301
 H         -3.2678971997        3.4880522592        1.7904813010
 H         -4.4699371896        4.6275504396        1.1822981115
 H         -5.0960101495        2.9517136606       -0.5914293494
 H         -5.4472519197        2.4738623697        1.0792636503
 O         -4.0568934599        0.5677186095        1.2821065394
 C         -3.4141361000       -0.6591038806        1.3610362788
 O         -3.5847587502       -1.2607580011        2.4414045185
 H         -0.4128182700       -0.5433460308        1.3926464092
 C          0.1576416900       -1.2012324705        0.7464975089
 C         -0.4898503600       -2.2585704701        0.1189937283
 C          0.2554486900       -3.0933684798       -0.7028065821
 C          1.6041778601       -2.8556529898       -0.9053101418
 C          2.2388895101       -1.7912073201       -0.2927263612
 C          1.5054841901       -0.9559882405        0.5399618092
 N          2.1443271301        0.1264407291        1.1752635298
 S          2.9526018303        1.2260458196        0.1903862905
 O          2.9548661703        2.4671196792        0.9349807811
 O          2.3862586304        1.2716304003       -1.1369776496
 C          4.6120245802        0.5830011195        0.1305988903
 C          5.2903334101        0.4240821888        1.3232068703
 C          6.5804915201       -0.0807026413        1.2970655001
 C          7.1681473501       -0.4134364807        0.0854618800
 C          6.4755882603       -0.2435125400       -1.1035214700
 C          5.1840182603        0.2601560201       -1.0841749398
 H          4.6041039404        0.4038208006       -1.9821194998
 H          6.9341662104       -0.5019059596       -2.0444295701
 H          8.1719906401       -0.8074705608        0.0677510299
 H          7.1222922200       -0.2136895018        2.2195875201
 H          4.7982579900        0.6990551683        2.2411274204
 H          1.5433648001        0.6217089188        1.8186334600
 H          3.2861266601       -1.5964605001       -0.4565921910
 H          2.1684133401       -3.5073532795       -1.5547804521
 H         -0.2227666400       -3.9229422995       -1.1969510425
 C         -1.9698449800       -2.4350267601        0.3621785981
 H         -2.1113977202       -2.7819995807        1.3964606179
 C         -2.6225204200       -3.4265750396       -0.5787003125
 C         -2.6424424602       -4.8873187998       -0.2453785533
 C         -3.9027837801       -4.0815828797       -0.1586964130
 H         -4.6702527300       -4.2375822393       -0.9018326732
 H         -4.2876425602       -3.8310168502        0.8193716671
 H         -2.5481429701       -5.6010877794       -1.0497427137
 H         -2.1759318503       -5.1963970003        0.6777075866
 H         -2.5263330299       -3.1357246191       -1.6185648824
 O         -1.8553381797       -0.6726340790       -1.9086758410
