  62
        -98.93315527
 C         -2.1294612870       -0.8814328231        0.1864029559
 C         -2.9902053722       -0.2298359840        1.1049140935
 C         -3.8752969525        0.8066576213        0.5532845871
 C         -3.7779916776        1.1207064358       -0.7511727821
 C         -4.6610186927        2.0907702299       -1.4833153629
 C         -6.0267016184        1.4378441794       -1.7782302721
 C         -7.2059399173        2.0861587178       -1.0526389186
 H         -7.4532083296        3.0274013372       -1.5480003006
 H         -8.0641948116        1.4200645176       -1.1636844338
 C         -6.9943535373        2.3823748516        0.4352881927
 H         -6.4120345787        3.2980823503        0.5484622612
 H         -7.9788255571        2.5854587943        0.8620968719
 C         -6.3238820679        1.2707096389        1.2528685020
 H         -6.8088036831        1.2279675404        2.2302718613
 H         -6.4769941574        0.2999750878        0.7806002470
 C         -4.8198025073        1.4819016214        1.5088771167
 H         -4.6021012314        2.5532199413        1.5428238598
 H         -4.5698841609        1.0660575946        2.4896758113
 H         -6.2234355070        1.4749629502       -2.8506765549
 H         -5.9673023965        0.3816780780       -1.5068338006
 H         -4.7881297008        2.9934862665       -0.8897892774
 H         -4.1555003172        2.3518783192       -2.4131832641
 O         -2.8901516065        0.5242911446       -1.5865841058
 C         -2.0431277478       -0.4878744844       -1.1498205453
 O         -1.2847134819       -0.9244666095       -2.0334072771
 O         -3.0123080852       -0.5002539067        2.3366096096
 C         -1.2250464113       -1.9753820034        0.7240167462
 C          0.1959474972       -1.7602178124        0.2653172287
 C          0.9394242875       -2.7109685559       -0.4200083930
 C          2.2456551714       -2.4435839764       -0.7923530498
 C          2.8366201879       -1.2304654344       -0.4940742212
 C          2.1031660071       -0.2716277004        0.1930600559
 C          0.7994333707       -0.5462377188        0.5734464628
 H          0.2282208779        0.2022006881        1.1109832054
 N          2.6927113938        0.9721431378        0.4870568930
 S          4.1598707061        0.9679811606        1.3058223035
 O          4.2897400961       -0.1983654157        2.1487371399
 O          4.2246531037        2.2513328462        1.9710655399
 C          5.3807426222        0.9238453205        0.0110781237
 C          5.3671078852        1.9322737879       -0.9324873653
 C          6.3170599210        1.9170321876       -1.9412230614
 C          7.2610397841        0.9017649978       -1.9869006679
 C          7.2633920928       -0.1014802586       -1.0299553780
 C          6.3150214585       -0.0929193264       -0.0188967267
 H          6.2745604866       -0.8539846348        0.7439203817
 H          7.9982882202       -0.8894739487       -1.0671387460
 H          7.9992447195        0.8928439636       -2.7732213806
 H          6.3180942441        2.6953351134       -2.6872852876
 H          4.6197522329        2.7046612153       -0.8586077764
 H          2.0561937354        1.6289120326        0.9151028281
 H          3.8504042443       -1.0165717769       -0.7906690947
 H          2.8093822688       -3.1903039711       -1.3304294877
 H          0.4916322360       -3.6553765783       -0.6812602472
 H         -1.2450606050       -1.8292617883        1.8178866980
 C         -1.7356954495       -3.3863166900        0.4716823730
 C         -3.1975462447       -3.6571225415        0.2818287618
 C         -2.2493822608       -3.8267809178       -0.8651463486
 H         -2.0223772491       -4.8298341308       -1.1956433832
 H         -2.2623739011       -3.0972338276       -1.6592837933
 H         -3.6190256176       -4.5394473550        0.7396866517
 H         -3.8667713231       -2.8089256476        0.2717126267
 H         -1.1853537157       -4.1232183052        1.0487767725
