  62
        -98.94052939
 C         -2.3357632063       -0.2389961984        0.2648131826
 C         -3.5262244594       -0.7044729400        0.8726835309
 C         -4.7227776863        0.1189644717        0.6558281706
 C         -4.6196472221        1.2499734226       -0.0661225282
 C         -5.7678153779        2.1517402238       -0.4138498577
 C         -6.4018169334        1.7494472294       -1.7529151465
 C         -6.7173898339        0.2577098523       -1.8634236908
 H         -7.1879210238        0.0960553967       -2.8356919316
 H         -5.7812960248       -0.3056086039       -1.8625212881
 C         -7.6338099878       -0.2809146030       -0.7559061629
 H         -8.1517562659        0.5460318840       -0.2689217241
 H         -8.3953555491       -0.9179073280       -1.2106631278
 C         -6.9211753171       -1.1252494588        0.3021734428
 H         -6.3247654959       -1.8993751902       -0.1873332895
 H         -7.6818843900       -1.6297967991        0.9037721288
 C         -6.0110258843       -0.3554961835        1.2675781521
 H         -6.5610278002        0.4798156914        1.7054752585
 H         -5.7259187616       -1.0397008685        2.0721045737
 H         -7.3172413893        2.3280615569       -1.8891424150
 H         -5.7097612521        2.0130189927       -2.5560703199
 H         -6.5110167543        2.1083876423        0.3798158565
 H         -5.3910492289        3.1727921557       -0.4925321939
 O         -3.4521422129        1.6799562588       -0.6098054267
 C         -2.2836106680        0.9455399752       -0.4696414592
 O         -1.2920801892        1.4476512122       -1.0318290953
 H          1.5226795145       -0.5460186621       -0.4284065266
 C          1.2745483335       -0.0741920792        0.5071442126
 C          0.0158447712       -0.2252021867        1.0649666404
 C         -0.2569955961        0.4064918852        2.2764643190
 C          0.7039159261        1.1729970388        2.9055113424
 C          1.9622300808        1.3174029771        2.3473257732
 C          2.2441271105        0.6939155825        1.1381612314
 N          3.5010534151        0.8482989425        0.5326821886
 S          4.1397523481       -0.4232108157       -0.3721589090
 O          3.5754573607       -0.3932004618       -1.6979506242
 O          4.0037062293       -1.6668514003        0.3525794610
 C          5.8531099401        0.0676281713       -0.4406901162
 C          6.2208289614        1.0558301068       -1.3346717014
 C          7.5449028430        1.4623714214       -1.3762631145
 C          8.4742440406        0.8776095311       -0.5284724803
 C          8.0908971530       -0.1142505193        0.3615459678
 C          6.7676479068       -0.5244426084        0.4095947051
 H          6.4248085458       -1.2966915152        1.0792437800
 H          8.8163007166       -0.5693255982        1.0164829178
 H          9.5043250064        1.1952497745       -0.5641952311
 H          7.8471320624        2.2312740107       -2.0688895079
 H          5.4657323856        1.4741290689       -1.9798825827
 H          4.1903943683        1.2555090695        1.1494681417
 H          2.7147687857        1.9152107187        2.8386695485
 H          0.4756563736        1.6575665337        3.8430576550
 H         -1.2385908339        0.2881631408        2.7154652429
 C         -1.0660264461       -1.0554719911        0.4206241487
 H         -1.3252047715       -1.8717655712        1.1120397673
 C         -0.6583357341       -1.6576102484       -0.9071640432
 C          0.1719891513       -2.9044708538       -0.9436483741
 C         -1.2711418323       -2.9528005752       -1.3444019053
 H         -1.5131579165       -3.0824745436       -2.3886021681
 H         -1.9731243699       -3.4214217513       -0.6701138859
 H          0.9289935229       -2.9952526261       -1.7086463525
 H          0.4558719066       -3.3424331150        0.0016273700
 H         -0.4794044924       -0.9063503774       -1.6694258301
 O         -3.5836297714       -1.7556906920        1.5663227057
