  62
        -98.93735730
 C          2.2804004364       -0.6773183656       -0.1539435512
 C          3.5414273174       -1.0189019050       -0.7073320523
 C          4.7204908540       -0.5875986716        0.0507838304
 C          4.5599550127        0.0967884211        1.1975655532
 C          5.6607999237        0.5820256764        2.1013336236
 C          6.2719057109        1.9241819032        1.6759679180
 C          7.1610545927        1.8694115774        0.4330499759
 H          7.6921364331        2.8216824288        0.3772841725
 H          7.9094037980        1.0861229775        0.5572473139
 C          6.3986998416        1.6520917870       -0.8815387686
 H          5.3396365682        1.8730107208       -0.7289861429
 H          6.7657358925        2.3519905179       -1.6356352512
 C          6.5314313792        0.2459526742       -1.4665697687
 H          7.5709126385        0.0620006610       -1.7468729230
 H          5.9235763369        0.1927781619       -2.3733904519
 C          6.0741754695       -0.8759205345       -0.5250263046
 H          5.9999043239       -1.7999939555       -1.1035731339
 H          6.8034477976       -1.0192827097        0.2720144112
 H          5.4626500663        2.6400658751        1.5145388404
 H          6.8745404905        2.2865885187        2.5119477360
 H          5.2174639313        0.7042164484        3.0919026479
 H          6.4445499475       -0.1736449458        2.1616209924
 O          3.3349998306        0.4217103280        1.6872598517
 C          2.1666452097        0.0705238090        1.0190923241
 O          1.1319492588        0.4822642678        1.5751085102
 O          3.6743847046       -1.6538718233       -1.7872919442
 C          1.0420783418       -1.1047951521       -0.9200653246
 C          0.0712177263        0.0410798888       -1.0480845990
 C          0.4516490222        1.1625259120       -1.7816816776
 C         -0.4064739455        2.2340440628       -1.9315280632
 C         -1.6707468517        2.2030104283       -1.3693653097
 C         -2.0562499146        1.0931884165       -0.6278932810
 C         -1.1866000946        0.0230734373       -0.4689694132
 H         -1.5056853186       -0.8139300970        0.1293915947
 N         -3.3204148033        1.0400407983       -0.0208446521
 S         -4.1051111211       -0.4501264074        0.0696616767
 O         -3.6850180839       -1.1384024246        1.2640348583
 O         -3.9399374284       -1.1708507603       -1.1731761914
 C         -5.7978292990        0.0845515560        0.2485250042
 C         -6.2705937031        0.3966411069        1.5091955475
 C         -7.5760902306        0.8420213284        1.6436396494
 C         -8.3824861449        0.9679034194        0.5221767957
 C         -7.8949391790        0.6488982122       -0.7363428111
 C         -6.5899538762        0.2040794920       -0.8780561027
 H         -6.1713411453       -0.0649324193       -1.8345338030
 H         -8.5253531429        0.7441934185       -1.6056934033
 H         -9.3982485533        1.3139898629        0.6302115426
 H         -7.9592959387        1.0878892075        2.6208422686
 H         -5.6100805868        0.2743551788        2.3518920760
 H         -3.9387442885        1.7803761612       -0.3218497953
 H         -2.3463578797        3.0360641928       -1.4916934059
 H         -0.0946763939        3.0974446513       -2.5001086476
 H          1.4368050123        1.1825995281       -2.2286025193
 H          1.4154333097       -1.3425306735       -1.9311678426
 C          0.3901539593       -2.3745702134       -0.3941378080
 C          1.2057641886       -3.4618098365        0.2368790262
 C          0.2502170682       -2.6628877545        1.0691084102
 H         -0.6617998417       -3.1321106522        1.4100217880
 H          0.6471447549       -1.9382728759        1.7628820169
 H          0.9587263123       -4.4876050569        0.0084119261
 H          2.2636170703       -3.2825670678        0.3631627164
 H         -0.4324139502       -2.6957614022       -1.0279963855
