  62
        -98.93905526
 C         -2.4720052842       -1.0006190205        0.3710129269
 C         -2.7608657099        0.1760807187        1.1127490982
 C         -4.1004361449        0.7462235470        0.9401138100
 C         -4.9840999453        0.1327981220        0.1325742604
 C         -6.4002697123        0.5685227584       -0.1287524266
 C         -6.5315750397        1.6479716685       -1.2118634384
 C         -6.0582621962        3.0426637431       -0.8006132959
 H         -6.4077781150        3.7381139349       -1.5661943716
 H         -6.5353778322        3.3251254841        0.1382814655
 C         -4.5350681756        3.1810329024       -0.6680812337
 H         -4.0464116286        2.3470627443       -1.1774625005
 H         -4.2071922336        4.0957936727       -1.1669691980
 C         -4.0260644315        3.2448258291        0.7721520142
 H         -2.9345776850        3.3025998665        0.7477987745
 H         -4.4005564759        4.1507149888        1.2541414906
 C         -4.4158975373        2.0368160274        1.6339604524
 H         -5.4745093253        2.0823105693        1.8891873026
 H         -3.8304531126        2.0697910682        2.5561767786
 H         -5.9807506738        1.3228564635       -2.0973766923
 H         -7.5881972111        1.7112612302       -1.4817108051
 H         -6.8501481194        0.9246359529        0.7984042960
 H         -6.9418791337       -0.3199154187       -0.4602269650
 O         -4.6806488598       -1.0044146919       -0.5429538112
 C         -3.4230229256       -1.5872747343       -0.4647792366
 O         -3.3107095851       -2.6050291726       -1.1763024956
 O         -1.9356357497        0.7200852835        1.8958004466
 C         -1.0816492589       -1.5847154658        0.5453110356
 C         -0.1462549011       -1.1984144087       -0.5761771407
 C         -0.3910446841       -1.5715033707       -1.8939142012
 C          0.5090661248       -1.2432073339       -2.8909557842
 C          1.6760805152       -0.5613398097       -2.5939210832
 C          1.9261480440       -0.1783392852       -1.2815818386
 C          1.0098864718       -0.4889439680       -0.2863288605
 H          1.2129720388       -0.1742403519        0.7272049558
 N          3.0915056635        0.5291223016       -0.9475067699
 S          3.8124143120        0.2124721671        0.5469636308
 O          3.7865595397       -1.2070872307        0.8173178602
 O          3.2110164857        1.0631633456        1.5431997159
 C          5.4817079259        0.7493559483        0.2233009496
 C          5.7793793212        2.0958218088        0.3176628225
 C          7.0687082563        2.5176564845        0.0344018448
 C          8.0328151582        1.5921225884       -0.3371070157
 C          7.7196486040        0.2440114436       -0.4251179410
 C          6.4318027683       -0.1847202564       -0.1444587022
 H          6.1442597037       -1.2228008648       -0.1911059436
 H          8.4722223550       -0.4732858785       -0.7103591957
 H          9.0355725588        1.9233433115       -0.5561623424
 H          7.3168021737        3.5643914400        0.1051183912
 H          4.9997304934        2.7761360251        0.6188334505
 H          3.7683234346        0.5528634385       -1.6979073173
 H          2.3848216668       -0.3216131575       -3.3720884752
 H          0.3068467405       -1.5362451713       -3.9102521325
 H         -1.2922685127       -2.1179430700       -2.1254464667
 H         -0.6921687646       -1.1245460140        1.4645528607
 C         -1.0663118451       -3.0916383303        0.7249462096
 C          0.1700697546       -3.7351637907        1.2751766943
 C         -1.0755120066       -3.6697439802        2.1062850445
 H         -1.6286292219       -4.5806423446        2.2796035129
 H         -1.0978688012       -2.9795864455        2.9373796002
 H          0.4717640588       -4.6918816435        0.8770367403
 H          0.9974732833       -3.0903930647        1.5358660486
 H         -1.6116323548       -3.6222534620       -0.0445221513
