  62
        -98.93255780
 C          2.4389513503        0.8811054398        0.2399716395
 C          2.8595307004       -0.4327866301        0.5657933396
 C          3.9917414304       -0.9803699401       -0.1973344305
 C          4.5482391803       -0.2358441601       -1.1678314005
 C          5.6781302703       -0.5973751201       -2.0992376806
 C          6.8873757004       -1.3249563700       -1.4958591206
 C          7.2192984404       -0.9407951599       -0.0465381106
 H          8.2784061404       -0.6848424998        0.0190525893
 H          6.6515367104       -0.0557975899        0.2457092093
 C          6.9478193506       -2.0721276098        0.9480304895
 H          7.3058693206       -3.0099645598        0.5177352095
 H          7.5264410206       -1.8876387897        1.8564060094
 C          5.4882588706       -2.2409628299        1.3690070696
 H          5.1860029806       -1.4035225798        2.0037683095
 H          5.4161293107       -3.1454254398        1.9779845496
 C          4.4732492805       -2.3406544400        0.2183949396
 H          3.5927716106       -2.8716531001        0.5908711997
 H          4.8826107005       -2.8968991401       -0.6215167204
 H          7.7418662403       -1.1009344000       -2.1366473007
 H          6.7292383304       -2.4011753800       -1.5497745605
 H          5.2665944303       -1.2010762602       -2.9134117505
 H          6.0012141402        0.3514117099       -2.5342964007
 O          4.0993053202        1.0139342098       -1.4660389406
 C          3.0451199202        1.6090128498       -0.7836802206
 O          2.7737676401        2.7530650897       -1.1887050607
 O          2.3072586305       -1.1223213801        1.4661328397
 C          1.2867153103        1.4453497598        1.0517246395
 C         -0.0291506997        1.1380321797        0.3838546396
 C         -0.2748768698        1.5084909596       -0.9351472704
 C         -1.4872416598        1.2107086494       -1.5293606603
 C         -2.4735469997        0.5363596794       -0.8296137402
 C         -2.2294806096        0.1397586595        0.4777994198
 C         -1.0134139696        0.4494570097        1.0762685397
 H         -0.8222746395        0.1302317898        2.0918841097
 N         -3.2200827795       -0.5393765905        1.2006487399
 S         -4.1619128995       -1.7060805206        0.4512398701
 O         -4.6425048594       -2.5411320605        1.5298550802
 O         -3.4451776895       -2.3739616006       -0.6098525399
 C         -5.5276452496       -0.7769935607       -0.2152776099
 C         -6.2240862096        0.0581193693        0.6363817001
 C         -7.2935256297        0.7833319992        0.1362518001
 C         -7.6490962197        0.6597624991       -1.1986826899
 C         -6.9429878797       -0.1862698310       -2.0398482299
 C         -5.8713796996       -0.9139535409       -1.5458018999
 H         -5.2911069196       -1.5798930509       -2.1649450899
 H         -7.2211218498       -0.2816879211       -3.0771737499
 H         -8.4814077498        1.2260301190       -1.5858723399
 H         -7.8450978197        1.4422456092        0.7873494400
 H         -5.9186842895        0.1242766994        1.6671956200
 H         -2.9332159094       -0.8326837304        2.1229733899
 H         -3.4159508697        0.2989676393       -1.2946826901
 H         -1.6684320499        1.5076620293       -2.5513358903
 H          0.4949564302        2.0286989196       -1.4851151205
 H          1.3132153204        0.8792597299        1.9967849296
 C          1.4556844903        2.9165181299        1.4046154194
 C          0.5883606102        4.0105095998        0.8663226294
 C          0.4515584103        3.5868114899        2.2958076894
 H          0.8057611203        4.2472810400        3.0726232593
 H         -0.4268220897        3.0184973598        2.5633856895
 H          1.0613762901        4.9547580198        0.6442656693
 H         -0.2009748799        3.7489248097        0.1801219794
 H          2.4974735003        3.1725614199        1.5690436493
