  62
        -98.93914354
 C         -2.3422551668       -0.8134759847        0.6083531972
 C         -3.4354913419       -0.9836275966       -0.2767334574
 C         -4.6414049736       -0.2052884316        0.0387977237
 C         -4.6664395618        0.5963041530        1.1176942613
 C         -5.8267520037        1.4388733331        1.5731739091
 C         -5.9268241310        2.7971637939        0.8653104582
 C         -6.3922937494        2.7398792700       -0.5902594494
 H         -7.3150264437        2.1622476229       -0.6525829763
 H         -6.6270301142        3.7627599202       -0.8913700433
 C         -5.3553680364        2.1644967679       -1.5651276081
 H         -4.3678859927        2.1775839338       -1.0975603809
 H         -5.2970466091        2.8001532806       -2.4515316488
 C         -5.6562319190        0.7446329740       -2.0449245362
 H         -6.5777369187        0.7432418434       -2.6312502348
 H         -4.8403174324        0.4239558453       -2.6973487684
 C         -5.7935434826       -0.2864202292       -0.9172446451
 H         -6.7360291704       -0.1443742688       -0.3893504861
 H         -5.7867026248       -1.2842932934       -1.3621173057
 H         -4.9532501475        3.2901747555        0.9178238168
 H         -6.6382406292        3.4057047198        1.4283926029
 H         -6.7568576766        0.8864127827        1.4370635755
 H         -5.6803904108        1.6167037390        2.6407483889
 O         -3.6031421120        0.7194419591        1.9565687350
 C         -2.4237391757        0.0378209728        1.7154280344
 O         -1.5297940575        0.2605063736        2.5583209778
 H          1.3890568461       -0.3425269860        0.8267398064
 C          1.0821845374       -0.3023156293       -0.2086219331
 C         -0.1387201976       -0.8371063123       -0.5926518269
 C         -0.5175783357       -0.7520581220       -1.9285960565
 C          0.3148426685       -0.1489769056       -2.8532719072
 C          1.5441477453        0.3592995635       -2.4721987146
 C          1.9282436158        0.2856943611       -1.1384577149
 N          3.1603401734        0.8102509983       -0.7159512959
 S          3.9852971954        0.0125965132        0.5227016042
 O          3.9171102012       -1.4173170324        0.3212247859
 O          3.5093531861        0.5021084913        1.7922654744
 C          5.6446884573        0.5983621811        0.2345828159
 C          6.0086659012        1.8362681285        0.7300568540
 C          7.2874705924        2.3079410530        0.4796203656
 C          8.1754534588        1.5391002592       -0.2582877304
 C          7.7964513430        0.2979023921       -0.7471530123
 C          6.5185616672       -0.1794400654       -0.5015099484
 H          6.1823550600       -1.1414395981       -0.8535945533
 H          8.4901422549       -0.2988367575       -1.3171645797
 H          9.1703335276        1.9084675303       -0.4506391249
 H          7.5865924420        3.2709487321        0.8608862575
 H          5.2876323309        2.3927729391        1.3061026606
 H          3.7725256117        1.0454912984       -1.4852601709
 H          2.1989728993        0.8160324857       -3.1988581910
 H          0.0090899708       -0.0866609160       -3.8868344200
 H         -1.4702311785       -1.1590027212       -2.2301917166
 C         -1.0079759518       -1.5210939357        0.4360984704
 H         -0.4974314258       -1.4309328106        1.4053407513
 C         -1.1428190402       -2.9962046868        0.1057145466
 C          0.0494200890       -3.8834304256        0.2946606721
 C         -1.1281861021       -4.0021927217        1.2144651378
 H         -1.7631653850       -4.8713234459        1.1299625400
 H         -1.0254157331       -3.6323019657        2.2247298077
 H          0.2228275795       -4.6718363107       -0.4217121238
 H          0.9546792074       -3.4316445437        0.6751726403
 H         -1.7896358647       -3.1912213629       -0.7391600679
 O         -3.4348438642       -1.7399977896       -1.2835307461
