  62
        -98.93643141
 C          2.4306643503        1.0389168297       -0.6516774597
 C          3.5921186902        0.8886458293        0.1516083304
 C          4.3808220600       -0.3317738808       -0.0554594597
 C          3.9815465599       -1.2191141105       -0.9841835299
 C          4.6575238497       -2.5282576006       -1.2687096401
 C          4.0629117994       -3.6572614906       -0.4152279104
 C          3.9514539893       -3.3156273009        1.0707643096
 H          3.2236913194       -2.5107920508        1.1990333497
 H          3.5488580891       -4.1954908409        1.5772411294
 C          5.2767403093       -2.9086208413        1.7299990999
 H          5.3626845691       -3.4225449315        2.6896796898
 H          6.1139782793       -3.2348448513        1.1119031399
 C          5.4102502195       -1.4112421214        2.0140487702
 H          4.5267688195       -1.0598742413        2.5533118801
 H          6.2729220195       -1.2649345117        2.6694691803
 C          5.6123703399       -0.5150649512        0.7857304304
 H          6.4373652398       -0.8986606912        0.1819683004
 H          5.8821508100        0.4830507987        1.1429252806
 H          3.0622090194       -3.8842859904       -0.7899210606
 H          4.6827021192       -4.5469286607       -0.5402634605
 H          4.5142378598       -2.7675915103       -2.3237433402
 H          5.7229754397       -2.4306681708       -1.0697724900
 O          2.8737608300       -1.0386672502       -1.7445199600
 C          2.0628758802        0.0801708400       -1.5961513899
 O          1.0756046503        0.0783040103       -2.3562750200
 O          3.9560474403        1.7467868891        0.9994362606
 C          1.6235927505        2.3086641898       -0.4431212195
 C          0.4616750804        2.0829503399        0.4899428003
 C          0.2729419304        2.8871706297        1.6071396505
 C         -0.8124931497        2.6874778097        2.4432923803
 C         -1.7295578999        1.6849924599        2.1837573900
 C         -1.5474566099        0.8737117901        1.0709251898
 C         -0.4585742498        1.0749130101        0.2355987400
 H         -0.3253300298        0.4489712002       -0.6350789301
 N         -2.4747554901       -0.1580247597        0.7923332695
 S         -4.0567129699        0.3812934007        0.5179201095
 O         -4.0663027196        1.3719251809       -0.5368941703
 O         -4.6173795600        0.7990190006        1.7776101595
 C         -4.8433192102       -1.1195805290       -0.0293215409
 C         -4.9256355901       -1.3826788887       -1.3832116810
 C         -5.5154604602       -2.5653351886       -1.8009759313
 C         -6.0064089305       -3.4605394286       -0.8624822315
 C         -5.9153174206       -3.1822745289        0.4932712785
 C         -5.3273967404       -2.0014090091        0.9177218288
 H         -5.2414155005       -1.7385886994        1.9590045289
 H         -6.3002103408       -3.8803561290        1.2190120083
 H         -6.4651802107       -4.3797068685       -1.1910445818
 H         -5.5889416002       -2.7829310683       -2.8544388413
 H         -4.5385166398       -0.6547817287       -2.0787160108
 H         -2.1758116201       -0.6894528595       -0.0167712805
 H         -2.5884616300        1.5309700300        2.8161233099
 H         -0.9477162097        3.3210170996        3.3068891604
 H          0.9873256005        3.6686697295        1.8220574607
 H          2.3209226706        2.9963790196        0.0609099007
 C          1.2084897208        2.9675537402       -1.7530827194
 C         -0.2078252791        3.0920035705       -2.2216491096
 C          0.5270406211        4.3039392203       -1.7379367092
 H          0.8304617413        5.0506865104       -2.4558373490
 H          0.2429299910        4.7037389302       -0.7759061692
 H         -0.3927219490        2.9829595708       -3.2796787396
 H         -1.0002680693        2.6952696106       -1.6053298997
 H          1.9503460609        2.8135021402       -2.5306474794
