  62
        -98.93748141
 C         -2.2483752288       -0.7998457982        0.0764007193
 C         -3.5752625551       -1.2148099119        0.3593486230
 C         -4.6471516562       -0.4890422328       -0.3341047386
 C         -4.3242948876        0.5133888103       -1.1709655819
 C         -5.3136622470        1.3691276225       -1.9066811365
 C         -5.6803468580        2.6181639122       -1.0930870483
 C         -6.0623501695        2.3200237565        0.3568000513
 H         -5.1847421949        1.9394996561        0.8845856559
 H         -6.3308211190        3.2699359211        0.8240831355
 C         -7.2207995171        1.3255316410        0.5166921961
 H         -7.9111882550        1.7109234992        1.2698661732
 H         -7.7737588403        1.2475352542       -0.4200001703
 C         -6.7988240474       -0.0721993463        0.9734880698
 H         -7.6985958900       -0.6212978526        1.2632281019
 H         -6.1649095824        0.0076401640        1.8601463062
 C         -6.0620745394       -0.9217837187       -0.0697753672
 H         -5.9954559328       -1.9417548701        0.3199007371
 H         -6.6368039123       -0.9450926577       -0.9978686578
 H         -6.5077495141        3.1249389837       -1.5930550025
 H         -4.8206091612        3.2922796660       -1.0890985760
 H         -6.2066682696        0.7835161725       -2.1164186813
 H         -4.8632653028        1.6803139292       -2.8507806931
 O         -3.0438858637        0.8983360092       -1.4024986022
 C         -1.9730806134        0.2693735739       -0.7770931204
 O         -0.8661706664        0.7614341301       -1.0667092168
 O         -3.8496015556       -2.1474007034        1.1605760068
 C         -1.1210064433       -1.5338252902        0.7798966635
 C         -0.1186630482       -0.5527382040        1.3336718008
 C         -0.5424882707        0.3601977355        2.2961297124
 C          0.3317021037        1.2937976263        2.8162001408
 C          1.6474842989        1.3335897600        2.3902974438
 C          2.0853584507        0.4184988483        1.4401674932
 C          1.2044432175       -0.5212537487        0.9229179724
 H          1.5591521503       -1.2009880939        0.1679213897
 N          3.4357137575        0.4128827643        1.0435285013
 S          3.8942858895        0.0505093196       -0.5386414498
 O          3.3428589559        1.0099335152       -1.4693564140
 O          3.6264906736       -1.3395897103       -0.8057293927
 C          5.6556692532        0.2954478584       -0.3867663631
 C          6.2320103816        1.4521730812       -0.8755435498
 C          7.5984755476        1.6348072120       -0.7298287999
 C          8.3609325515        0.6637873126       -0.0987138489
 C          7.7684936033       -0.4928463951        0.3864538526
 C          6.4033770644       -0.6817762401        0.2426808471
 H          5.9011886925       -1.5673934444        0.5950838048
 H          8.3650435064       -1.2467029864        0.8743356213
 H          9.4239504823        0.8079778431        0.0131739700
 H          8.0617642408        2.5314095642       -1.1091043814
 H          5.6003285146        2.1754581426       -1.3660570429
 H          3.9228898824        1.2445894355        1.3511122413
 H          2.3295724578        2.0691639905        2.7895407431
 H         -0.0135453960        2.0022344731        3.5544564973
 H         -1.5747919207        0.3360548573        2.6193845569
 H         -1.6110167294       -2.0353542487        1.6319767894
 C         -0.4804273988       -2.6312001264       -0.0564280741
 C         -1.2488251396       -3.3534648785       -1.1210763823
 C         -0.1266513229       -2.4360244687       -1.4991598224
 H          0.7982973217       -2.8625460737       -1.8605935510
 H         -0.3626306919       -1.4831290312       -1.9476118947
 H         -1.1021585215       -4.4178461212       -1.2260547658
 H         -2.2603130892       -3.0288552855       -1.3177411282
 H          0.2074601224       -3.2346249884        0.5288616824
