  62
        -98.93798137
 C          1.6694990886        0.4215914197        0.1603348902
 C          2.8228151385        0.3918305990        0.9881811103
 C          3.9137369184       -0.5101692609        0.5870657398
 C          3.7707245584       -1.2602001901       -0.5184109807
 C          4.7234404784       -2.2742557599       -1.1002302613
 C          6.2145437284       -1.9127925801       -1.1246326209
 C          6.5168941686       -0.4214359200       -1.3314437199
 H          5.6092571787        0.1068983303       -1.6282011996
 H          7.2365044487       -0.3149934195       -2.1453205797
 C          7.1118541286        0.2449965491       -0.0886110894
 H          7.6323377488        1.1559620193       -0.3939268987
 H          7.8561888785       -0.4258377112        0.3459965902
 C          6.1041330185        0.6399393286        0.9902819308
 H          5.4945105987        1.4768071489        0.6390995212
 H          6.6636276985        0.9945896579        1.8592215510
 C          5.1469492483       -0.4748170816        1.4430859199
 H          4.8059568583       -0.2350924722        2.4539149601
 H          5.6481801982       -1.4394849517        1.4666386594
 H          6.6654978984       -2.4915463596       -1.9325982412
 H          6.6855829683       -2.2458559507       -0.2008637211
 H          4.5920569082       -3.2147057502       -0.5567945319
 H          4.3709652885       -2.4418381092       -2.1209559414
 O          2.6448444985       -1.2095672395       -1.2813924708
 C          1.5770570686       -0.3790820696       -0.9767337804
 O          0.6371876787       -0.4707948489       -1.7932315105
 H         -0.8965707615       -0.7332648997       -0.2763471809
 C         -1.2312700716       -0.3736418603        0.6851753493
 C         -0.5761660815        0.6954235093        1.2789455801
 C         -1.0334053515        1.1490770885        2.5106041904
 C         -2.1197247717        0.5509170083        3.1263541398
 C         -2.7698274218       -0.5152295013        2.5299805191
 C         -2.3117024217       -0.9815767905        1.3057806688
 N         -2.9805692418       -2.0590920600        0.6749195981
 S         -4.4899685417       -1.6437732694        0.0705876482
 O         -5.3819685817       -1.4130439100        1.1782560382
 O         -4.8613368117       -2.7026661188       -0.8402459425
 C         -4.2027743514       -0.1231710489       -0.8151196708
 C         -4.3683167813        1.0815910607       -0.1624207600
 C         -4.0524817211        2.2523546111       -0.8320212292
 C         -3.5738435209        2.1970814919       -2.1318818592
 C         -3.4094670510        0.9786378023       -2.7721508500
 C         -3.7215036612       -0.1953758781       -2.1067442408
 H         -3.6075811813       -1.1623092878       -2.5708078314
 H         -3.0302562109        0.9378390429       -3.7808039500
 H         -3.3265091108        3.1088261622       -2.6530934286
 H         -4.1749594710        3.2013908308       -0.3355412186
 H         -4.7424503614        1.0799741501        0.8481595699
 H         -2.4341849418       -2.4552031296       -0.0784591021
 H         -3.6280152719       -0.9838868514        2.9835846087
 H         -2.4642161017        0.9177668577        4.0811015901
 H         -0.5272037415        1.9737687781        2.9901574109
 C          0.5669386987        1.3819525096        0.5713180507
 H          1.0409766987        2.0665335790        1.2874020012
 C          0.0224794289        2.1990673604       -0.5862939989
 C         -0.5498572509        3.5559715903       -0.3137391280
 C          0.7615632291        3.4250676206       -1.0271388680
 H          0.8044169193        3.6477674613       -2.0825371478
 H          1.6635478091        3.6834726401       -0.4912406277
 H         -0.5364827810        3.9092071396        0.7059099922
 H         -1.4120235508        3.8715828508       -0.8788795679
 H         -0.4475396311        1.5954103910       -1.3522525593
 O          2.9349003785        1.0946061383        2.0274343807
