  62
        -98.94355038
 C         -1.0646094975       -1.4815980618       -0.6641002451
 C         -0.4884307073       -1.9477299378        0.5390350231
 C          0.9382365692       -2.3296897311        0.4917789706
 C          1.6004136998       -2.2254355894       -0.6750506881
 C          3.0396419161       -2.5570954388       -0.9791582042
 C          4.0362873607       -1.5191239076       -0.4453813180
 C          3.8029101712       -1.0922851224        1.0010075136
 H          4.5360058921       -0.3163701220        1.2406629319
 H          2.8171420965       -0.6327434399        1.1008786351
 C          3.9485455495       -2.2082163181        2.0335782518
 H          4.9326185818       -2.6708670187        1.9277983618
 H          3.9062291846       -1.7370897370        3.0189920617
 C          2.8796018298       -3.3047136835        1.9918356372
 H          2.9202846969       -3.8342016231        2.9480676306
 H          3.0928158360       -4.0421625413        1.2218939274
 C          1.4539755656       -2.7860693340        1.8337028012
 H          0.7550893795       -3.5638363808        2.1639818956
 H          1.2943557299       -1.9446097430        2.5192342910
 H          5.0426811875       -1.9313419143       -0.5434362232
 H          3.9776548732       -0.6264099481       -1.0733820118
 H          3.2815832937       -3.5450320672       -0.5979578502
 H          3.1246516268       -2.5920584487       -2.0678641103
 O          0.9995449396       -1.7653022138       -1.8125842624
 C         -0.3215833184       -1.3615411023       -1.8354994628
 O         -0.7122365037       -0.9265076475       -2.9380028337
 H         -0.8804439361        1.0172827712       -0.2684821804
 C         -1.7221332092        1.0607831868        0.4070408871
 C         -2.6997266564        0.0771387921        0.3322328230
 C         -3.7878263734        0.1579960402        1.1910577474
 C         -3.8669310121        1.1799151497        2.1218894159
 C         -2.8627486679        2.1245853016        2.2287503871
 C         -1.7767770971        2.0602451546        1.3628846020
 N         -0.7350583481        2.9983524962        1.4228458322
 S          0.8351616335        2.4951570322        1.1255705300
 O          1.0679744405        1.1434025942        1.5742844886
 O          1.6567758948        3.5173756349        1.7416014510
 C          1.0059194555        2.6125167842       -0.6414163869
 C          1.5580366341        1.5574645066       -1.3385342268
 C          1.6936026484        1.6549278827       -2.7136229659
 C          1.2795702292        2.8068688263       -3.3638346124
 C          0.7347449762        3.8630252699       -2.6486976893
 C          0.5952905584        3.7693417516       -1.2733899973
 H          0.1739717558        4.5665793382       -0.6841134767
 H          0.4140860425        4.7559845799       -3.1607743045
 H          1.3795169462        2.8771854784       -4.4354558824
 H          2.1022731371        0.8249610646       -3.2679520557
 H          1.8514021286        0.6729797493       -0.7947626149
 H         -0.7854554053        3.6461264264        2.1957015409
 H         -2.9121947588        2.9016830162        2.9763113031
 H         -4.7144130140        1.2293886139        2.7888040848
 H         -4.5668695356       -0.5850781791        1.1419281529
 C         -2.5112955094       -1.0218385037       -0.6855822220
 H         -2.6812145718       -0.5986314983       -1.6868695052
 C         -3.4455990026       -2.1969060554       -0.4861124666
 C         -4.8112756372       -2.1911984699       -1.1030573603
 C         -3.7439833269       -3.0872243348       -1.6535966872
 H         -3.8219249324       -4.1507272726       -1.4847167988
 H         -3.2927350023       -2.8276683720       -2.6003459122
 H         -5.0941165801       -1.3265615375       -1.6841042313
 H         -5.6256055519       -2.6436736022       -0.5574558025
 H         -3.3199057064       -2.6661721386        0.4830089020
 O         -1.1348559338       -2.0546088196        1.6147297127
