  62
        -98.93599890
 C         -2.7046411084       -1.1492677284       -0.3140794834
 C         -2.4580622062        0.0211175459       -1.0733138912
 C         -3.3721700723        1.1461462781       -0.8267749189
 C         -4.3652453917        1.0268226844        0.0717212849
 C         -5.3842250666        2.0788150333        0.4162394052
 C         -4.9006085912        3.1009076572        1.4541697088
 C         -3.8688700855        4.1077527758        0.9440509822
 H         -4.2406350029        4.5757838911        0.0319994593
 H         -3.7841102305        4.8903258938        1.7006347113
 C         -2.4760370318        3.5143211446        0.6899176288
 H         -1.7164867000        4.1720229730        1.1184579462
 H         -2.3904698547        2.5523683892        1.2011242123
 C         -2.1296552434        3.3232546841       -0.7867151210
 H         -2.0844319250        4.2960419075       -1.2812410370
 H         -1.1384960640        2.8672402510       -0.8497047906
 C         -3.1117632280        2.4301922768       -1.5561418045
 H         -2.6640622722        2.1796451987       -2.5210000657
 H         -4.0459855507        2.9628738457       -1.7317349646
 H         -5.7773244789        3.6541984517        1.7985969970
 H         -4.4908741132        2.5610537616        2.3110467420
 H         -5.6959582545        2.5984162399       -0.4902825307
 H         -6.2468122898        1.5510582511        0.8287379861
 O         -4.5717106012       -0.1148799188        0.7802611619
 C         -3.7477718929       -1.2139125323        0.6156540961
 O         -4.0467672151       -2.1862262588        1.3375298009
 O         -1.5325886759        0.1454389408       -1.9175514934
 C         -1.8741012994       -2.4168593140       -0.4433179286
 C         -0.6257346539       -2.3356508573        0.3968550092
 C         -0.3344819963       -3.3081057575        1.3452770892
 C          0.8237418797       -3.2300609975        2.0998896657
 C          1.7128630041       -2.1850844085        1.9241450212
 C          1.4290952433       -1.2068422143        0.9794979231
 C          0.2673358118       -1.2862616152        0.2258689581
 H          0.0513276727       -0.5296625156       -0.5147885861
 N          2.3242002410       -0.1285646925        0.7911874057
 S          3.8952372140       -0.5758864639        0.3474627752
 O          3.8567623247       -1.4201774462       -0.8272083056
 O          4.5525068948       -1.1343032446        1.5016094878
 C          4.6037426555        1.0094969608       -0.0470837695
 C          4.5953668323        1.4456846422       -1.3581036238
 C          5.1248020041        2.6923739615       -1.6525144898
 C          5.6468058967        3.4778899584       -0.6358408551
 C          5.6466547056        3.0262662965        0.6756457074
 C          5.1198758440        1.7804443064        0.9767216324
 H          5.1053211214        1.3843805849        1.9785939238
 H          6.0550472752        3.6396852400        1.4624987216
 H          6.0583955956        4.4473734287       -0.8682772144
 H          5.1275090832        3.0449911525       -2.6714135425
 H          4.1868135702        0.7987476712       -2.1183029821
 H          1.9640289698        0.5107587083        0.0930324315
 H          2.6257731175       -2.1227023069        2.4935363778
 H          1.0382391886       -3.9929375415        2.8331391160
 H         -1.0265443093       -4.1243635709        1.4945135468
 H         -2.5055306054       -3.2138107321       -0.0207466403
 C         -1.5932102686       -2.7858935881       -1.8957966375
 C         -0.2266761362       -2.8261410759       -2.5060582791
 C         -0.9535652927       -4.1036048354       -2.2200400605
 H         -1.3403538370       -4.6809001173       -3.0460918921
 H         -0.6015983571       -4.6991361720       -1.3906483197
 H         -0.1307284677       -2.5013013136       -3.5312328305
 H          0.6277581613       -2.5782655497       -1.8947237722
 H         -2.3950918895       -2.4657922897       -2.5535188625
