  62
        -98.93038539
 C         -2.3732735450       -0.5816270027        0.5519521867
 C         -3.2017145006       -0.4578467614       -0.5903476855
 C         -4.3237984321        0.4888471461       -0.4669895101
 C         -4.4813303738        1.2048856462        0.6593642194
 C         -5.5294716191        2.2532189254        0.9247095423
 C         -6.9890206526        1.7616122648        0.9757695748
 C         -7.7421093884        1.8754475521       -0.3555208455
 H         -8.7622920898        2.2084842480       -0.1539778006
 H         -7.2725605699        2.6532927482       -0.9588699713
 C         -7.8474930780        0.5861295330       -1.1756836083
 H         -8.6225495128       -0.0500723981       -0.7420146872
 H         -8.1705313170        0.8561203626       -2.1834386164
 C         -6.5707107066       -0.2491188358       -1.2720106355
 H         -6.7236911274       -1.0194075257       -2.0305768334
 H         -6.4042967801       -0.7747018322       -0.3285333565
 C         -5.2992392098        0.5549146304       -1.6062728213
 H         -4.7982123927        0.1165509069       -2.4716338252
 H         -5.5477760215        1.5890578567       -1.8394642208
 H         -7.5046431541        2.3805039035        1.7118835397
 H         -7.0149245322        0.7358454810        1.3426955196
 H         -5.4384688398        3.0384663899        0.1708114988
 H         -5.2661439500        2.6871818223        1.8914658189
 O         -3.6385930426        1.0824315796        1.7223618103
 C         -2.5880394398        0.1840067098        1.7011107244
 O         -1.9194976519        0.1542793633        2.7549934957
 O         -3.0308083647       -1.0855714933       -1.6655460628
 C         -1.1937664440       -1.5376762794        0.6253919674
 C          0.0580409987       -0.8823581590        0.1014946946
 C          0.0998609193       -0.3109834931       -1.1666651203
 C          1.2617694680        0.2785572401       -1.6301318259
 C          2.3991301764        0.3176020276       -0.8420483603
 C          2.3668423636       -0.2445989053        0.4265451346
 C          1.2001638034       -0.8419239978        0.8873237811
 H          1.1759160903       -1.2695198461        1.8810917301
 N          3.5133987980       -0.1916980322        1.2367937141
 S          4.9702207438       -0.7227043919        0.5914730912
 O          4.7582579887       -1.7260113826       -0.4256958886
 O          5.7643271557       -1.1209322775        1.7329447947
 C          5.6829519746        0.7401084405       -0.1302112295
 C          5.8705438790        1.8428484354        0.6799570907
 C          6.4350572759        2.9848341887        0.1347224874
 C          6.8032909733        3.0036864430       -1.2024828129
 C          6.6114577323        1.8871175461       -2.0016697346
 C          6.0460315390        0.7418698522       -1.4627300074
 H          5.8735741596       -0.1480308320       -2.0469764877
 H          6.8988673971        1.9035679291       -3.0407368382
 H          7.2426039528        3.8940294244       -1.6239741138
 H          6.5858667126        3.8551687739        0.7529178235
 H          5.5752692174        1.7865635509        1.7144489240
 H          3.3754164320       -0.5644645617        2.1650504736
 H          3.3054234286        0.7785983994       -1.1994750500
 H          1.2819377441        0.7159193839       -2.6168501494
 H         -0.7862427149       -0.3398202175       -1.7824562778
 H         -1.0432289466       -1.7200352341        1.7015839937
 C         -1.4793802734       -2.8875041518       -0.0197028232
 C         -0.8114921101       -3.3809652895       -1.2640744238
 C         -0.4565768229       -3.9825712362        0.0602077934
 H         -0.7855806794       -4.9861093952        0.2839553784
 H          0.5085930934       -3.7318652751        0.4761254415
 H         -1.4092167619       -3.9555346329       -1.9549165916
 H         -0.0829282779       -2.7470291002       -1.7438365580
 H         -2.5145542118       -3.1847275364        0.1140037601
