  62
        -98.92849130
 C         -2.4596320602       -0.6846318473        0.9426606618
 C         -3.5036496401       -1.0560621399        0.0624540428
 C         -4.7685060901       -0.3018630596        0.1893212805
 C         -4.8659482302        0.6972040929        1.0844384576
 C         -6.0240191203        1.6022519739        1.4502712250
 C         -7.2497436303        1.7087307112        0.5466211546
 C         -6.9896989403        2.3590886073       -0.8117168673
 H         -7.9057331902        2.2923887956       -1.4028123771
 H         -6.7719990103        3.4185016478       -0.6542311903
 C         -5.8354197502        1.7672810851       -1.6168809055
 H         -5.7645960202        2.3219312223       -2.5566459271
 H         -4.8961189302        1.9232796067       -1.0819982559
 C         -5.9704369301        0.2853302041       -1.9615109912
 H         -5.1710027800        0.0379169621       -2.6652389405
 H         -6.9235312100        0.1099093625       -2.4643249608
 C         -5.8561423201       -0.6849420325       -0.7728503084
 H         -6.8063585501       -0.7909462011       -0.2551158681
 H         -5.5847109000       -1.6686508936       -1.1670278755
 H         -7.7106504402        0.7336257708        0.4194660774
 H         -7.9731684303        2.3334999127        1.0776602128
 H         -6.3539584103        1.2756056668        2.4427618459
 H         -5.5901527504        2.5983956943        1.5832330921
 O         -3.8245504903        1.0276833954        1.9045240767
 C         -2.6161890203        0.3609297953        1.8545052387
 O         -1.7673424703        0.7798092277        2.6678647176
 H          1.4000443098       -0.4555391157        1.4178834713
 C          1.1051772298       -0.3074662787        0.3875736608
 C         -0.1597132701       -0.7043679100       -0.0206310081
 C         -0.5312994301       -0.4923061338       -1.3443586387
 C          0.3463242699        0.1051221037       -2.2308591404
 C          1.6052252599        0.5051154249       -1.8187762215
 C          1.9864784499        0.2987476288       -0.4998080409
 N          3.2576514698        0.7195277101       -0.0701071820
 S          4.5611786399        0.3807881772       -1.0927763910
 O          4.6323008899        1.4123144943       -2.0969298740
 O          4.4594979000       -0.9745096542       -1.5851674171
 C          5.9335928398        0.5343816106        0.0326323786
 C          6.4420465097        1.7918576514        0.2975312450
 C          7.4950677597        1.9129686440        1.1902222447
 C          8.0183018997        0.7821394058        1.7997193580
 C          7.4977190398       -0.4731556850        1.5230761916
 C          6.4437439899       -0.6015667677        0.6322127219
 H          6.0144136499       -1.5580484784        0.3798933247
 H          7.9085594598       -1.3505638936        1.9960663542
 H          8.8391494397        0.8791532979        2.4926318978
 H          7.9043976096        2.8865567447        1.4065054719
 H          6.0103040697        2.6407119299       -0.2064851175
 H          3.4534709398        0.4373964729        0.8807160888
 H          2.2987230999        0.9679634630       -2.5024538228
 H          0.0475745500        0.2614333307       -3.2568532509
 H         -1.5100586600       -0.8079996848       -1.6722025378
 C         -1.0982158901       -1.3594195272        0.9608807038
 H         -0.7012953402       -1.1693241342        1.9709342432
 C         -1.1764158500       -2.8705878277        0.7886453382
 C         -0.7152951299       -3.5956320512       -0.4357978397
 C          0.0770173800       -3.6942527475        0.8308308506
 H          0.0689711501       -4.6235286259        1.3799328433
 H          1.0182257500       -3.1658236873        0.8674746091
 H         -1.2943529698       -4.4470971222       -0.7588123273
 H         -0.3040322199       -3.0187239535       -1.2491462314
 H         -2.0448949900       -3.2857214163        1.2897865493
 O         -3.4147470900       -1.9733114024       -0.7925180646
