  62
        -98.94680822
 C         -1.9516465170       -1.2049756299       -0.5295848148
 C         -1.4801831219       -0.0373478558       -1.1763333132
 C         -2.3098012765        1.1674302813       -1.0205944701
 C         -3.4349745449        1.1117224552       -0.2876500811
 C         -4.3379117507        2.2759282551       -0.0022748718
 C         -3.9373362140        2.9889613916        1.2963797121
 C         -2.4475444453        3.3209631350        1.3908581339
 H         -2.2938629616        3.8597022114        2.3289579288
 H         -1.8690576773        2.3959251603        1.4601524316
 C         -1.9057016673        4.1607387548        0.2258437453
 H         -1.2676970507        4.9482911385        0.6326279368
 H         -2.7300354558        4.6467578560       -0.2986494395
 C         -1.0559571485        3.3715571345       -0.7720475517
 H         -0.5229354669        4.0856687971       -1.4063079589
 H         -0.3077119893        2.7923684404       -0.2241978075
 C         -1.8320357005        2.4226009199       -1.6949509545
 H         -2.6674142209        2.9560341455       -2.1538827445
 H         -1.1533928205        2.0993001218       -2.4896276711
 H         -4.1970835394        2.3450147476        2.1399493587
 H         -4.5206244016        3.9082668298        1.3785258964
 H         -4.2989513568        2.9724268385       -0.8375853453
 H         -5.3581150023        1.9015992440        0.1001374539
 O         -3.8625545460       -0.0262867295        0.3168656544
 C         -3.1294646150       -1.1960042089        0.2241678660
 O         -3.6314232845       -2.1599015231        0.8385406164
 H          0.8791549794       -0.8646569849       -0.0996687107
 C          0.7924118770       -1.6096860186        0.6731652610
 C         -0.2160210154       -2.5614744583        0.5993503208
 C         -0.3150253119       -3.5151718018        1.6049242262
 C          0.5665749674       -3.5050130306        2.6710987272
 C          1.5432309905       -2.5312976170        2.7627715815
 C          1.6518957228       -1.5711722101        1.7608359356
 N          2.6357277592       -0.5781658535        1.8418335261
 S          2.3834314553        0.9927145171        1.3036402756
 O          3.1315200559        1.8103120479        2.2388472452
 O          0.9799102807        1.2973300323        1.1785204074
 C          3.2336255286        1.0245587038       -0.2599850685
 C          4.6156166403        1.0150940448       -0.2134491902
 C          5.3298992495        1.0197958769       -1.3991324095
 C          4.6533224042        1.0350754314       -2.6102612684
 C          3.2682897302        1.0465561318       -2.6394573318
 C          2.5456961301        1.0412245529       -1.4548581250
 H          1.4664779083        1.0324581525       -1.4593733797
 H          2.7363426024        1.0545290464       -3.5775149299
 H          5.2076952827        1.0380043071       -3.5356843587
 H          6.4077932145        1.0111903593       -1.3773387473
 H          5.0999081102        1.0174907232        0.7489235666
 H          3.1682130312       -0.5863700380        2.6992448138
 H          2.2160236494       -2.5060854229        3.6068596024
 H          0.4803462671       -4.2501035141        3.4475774212
 H         -1.1032529336       -4.2522253461        1.5585239333
 C         -1.2114703099       -2.5352732438       -0.5371334700
 H         -1.9732304848       -3.2990547800       -0.3271901167
 C         -0.5476048113       -2.8759716198       -1.8557484792
 C         -0.2724810585       -4.3135724800       -2.1753994982
 C         -1.3422765264       -3.5714587905       -2.9178157166
 H         -1.1682458918       -3.3026483277       -3.9486626629
 H         -2.3737122956       -3.8062328377       -2.6970315017
 H         -0.5795968870       -5.0556146042       -1.4538821402
 H          0.6399708207       -4.5581791804       -2.6968372072
 H          0.1755400677       -2.1403316358       -2.1796526932
 O         -0.4290746881        0.0231109702       -1.8669099391
