  62
        -98.94622884
 C         -1.7800334004       -1.1354436169       -0.2953983133
 C         -3.1279753927       -1.3106854104        0.1007574939
 C         -4.0644782506       -0.2731642754       -0.3451055556
 C         -3.6201914411        0.7466095064       -1.1023231012
 C         -4.4566491458        1.8686873585       -1.6548676113
 C         -4.6788427163        3.0246894194       -0.6698429786
 C         -5.6408466902        2.7232505318        0.4799465543
 H         -5.8717401370        3.6750967041        0.9623848384
 H         -6.5740652398        2.3281575066        0.0773942361
 C         -5.0834005570        1.7577564772        1.5352440422
 H         -3.9975090164        1.6945926994        1.4334721139
 H         -5.2886911532        2.1511032273        2.5334300672
 C         -5.6690159033        0.3468019185        1.4757959420
 H         -6.7359739984        0.3826310931        1.7065945598
 H         -5.1798818110       -0.2603262520        2.2418983498
 C         -5.4853417528       -0.3575770404        0.1248777629
 H         -6.1585403050        0.0706329299       -0.6174039365
 H         -5.7313678585       -1.4146033912        0.2526410636
 H         -5.0804042819        3.8655491644       -1.2399724147
 H         -3.7111577110        3.3292514454       -0.2648090792
 H         -3.9215564874        2.2553750640       -2.5248740802
 H         -5.4202162192        1.4796911059       -1.9849994714
 O         -2.3193732968        0.8680977842       -1.4782502948
 C         -1.3654641817       -0.0526194205       -1.0692149433
 O         -0.2104391379        0.2023805780       -1.4585449665
 O         -3.5266873160       -2.2839817865        0.7945226768
 C         -0.7463856217       -2.1565451390        0.1450286753
 C          0.3093869979       -1.4821379497        0.9851338585
 C         -0.0912171664       -0.7914217377        2.1275375791
 C          0.8324260923       -0.1519653844        2.9300745203
 C          2.1781526213       -0.1791068454        2.6050944337
 C          2.5891167003       -0.8670463585        1.4711616207
 C          1.6588779677       -1.5222864507        0.6736700179
 H          2.0105007082       -2.0409041806       -0.2018734599
 N          3.9530969071       -0.9322411323        1.1242759460
 S          4.4415866034       -0.3488703257       -0.3688893470
 O          3.8063434623       -1.0969399625       -1.4208896109
 O          5.8872090641       -0.4056645443       -0.3273465386
 C          3.9167846502        1.3560314734       -0.3681106396
 C          2.6013431456        1.6654570430       -0.6490377931
 C          2.1998549839        2.9904292893       -0.5645063521
 C          3.1074389225        3.9734554200       -0.2030026170
 C          4.4256329248        3.6436666674        0.0752788045
 C          4.8343556894        2.3226965432       -0.0018224171
 H          5.8488960207        2.0198517019        0.2016291053
 H          5.1315300096        4.4095612147        0.3536744082
 H          2.7850456163        5.0009450027       -0.1395871991
 H          1.1725084313        3.2356345482       -0.7837706643
 H          1.9046111381        0.8924856596       -0.9338089251
 H          4.5674190532       -0.5612674772        1.8363798943
 H          2.9036736240        0.3237692495        3.2265710159
 H          0.5045328208        0.3767594747        3.8122559829
 H         -1.1436243860       -0.7663929017        2.3761228795
 H         -1.2924630945       -2.8647564406        0.7859610899
 C         -0.1928628816       -2.9096322660       -1.0452935025
 C          0.3625035859       -4.2897126524       -0.8651987314
 C         -0.9449973264       -4.0938666772       -1.5706854435
 H         -0.9849705609       -4.2470474238       -2.6387428339
 H         -1.8519120021       -4.3742688327       -1.0548809756
 H          1.2252717372       -4.5757192966       -1.4480171753
 H          0.3443193512       -4.7095298453        0.1292573854
 H          0.2852406337       -2.2613028703       -1.7717663010
