  62
        -98.94148103
 C          1.9591562952        1.0542619286       -0.1271440039
 C          1.0951436655        1.5686344224       -1.1265257995
 C          0.1354869812        2.6081959276       -0.7196517927
 C          0.1350422063        3.0164220229        0.5621674993
 C         -0.7949304340        4.0284072781        1.1709983462
 C         -2.1745549439        3.4271475649        1.5192846985
 C         -2.6374149863        2.2863565098        0.6113895952
 H         -3.4881300481        1.7980524440        1.0964326532
 H         -1.8458660097        1.5362249535        0.5639211667
 C         -3.0724780109        2.6917436321       -0.7980524425
 H         -4.0531020630        3.1699349780       -0.7313174007
 H         -3.1855283008        1.7785687267       -1.3878871818
 C         -2.1461216812        3.6540403375       -1.5379569043
 H         -2.1058178652        4.6001795494       -1.0040402071
 H         -2.6014179125        3.8616855201       -2.5108128049
 C         -0.7370348459        3.1372092788       -1.8294667078
 H         -0.1765531068        3.9391886252       -2.3259730832
 H         -0.8004223348        2.3199957270       -2.5546213083
 H         -2.9195984409        4.2243046733        1.5206891900
 H         -2.1134140250        3.0179970091        2.5302597110
 H         -0.8894714548        4.8741728394        0.4939260203
 H         -0.3271280275        4.3850187407        2.0907703988
 O          0.9801507646        2.5038643318        1.4934433493
 C          1.8846905941        1.4948916669        1.1955627247
 O          2.5456461723        1.1141872234        2.1813195849
 O          1.1212887278        1.1622995588       -2.3210310917
 C          2.8855502282       -0.0670727733       -0.5639579778
 C          2.1817444755       -1.4043072050       -0.4781686540
 C          2.4277331399       -2.4057524418       -1.4112980333
 C          1.7460884082       -3.6075094331       -1.3496841380
 C          0.7760245802       -3.8190130109       -0.3852261899
 C          0.5211201568       -2.8242308425        0.5504416862
 C          1.2514766963       -1.6446293637        0.5206861528
 H          1.0565601329       -0.8937914997        1.2706221896
 N         -0.4890125202       -2.9716383085        1.5203756182
 S         -1.6531845611       -1.7687961371        1.6281318463
 O         -1.0631857171       -0.5402123158        2.0898398746
 O         -2.6864999705       -2.3394310515        2.4652117271
 C         -2.2692786332       -1.5836903169       -0.0356913044
 C         -3.4210001968       -2.2539983387       -0.4003264406
 C         -3.8717784056       -2.1536866471       -1.7066029165
 C         -3.1592641686       -1.4004864949       -2.6279892842
 C         -2.0024399733       -0.7380169541       -2.2481829980
 C         -1.5536445343       -0.8256114549       -0.9401178188
 H         -0.6597408926       -0.3116777016       -0.6241779512
 H         -1.4305628120       -0.1550079741       -2.9534775429
 H         -3.5059922131       -1.3265238660       -3.6466345503
 H         -4.7733457379       -2.6649518832       -2.0033165940
 H         -3.9430620301       -2.8267302281        0.3490188243
 H         -0.9367056655       -3.8777258988        1.5120496288
 H          0.2168395548       -4.7417942784       -0.3581426822
 H          1.9502103861       -4.3782206915       -2.0767897081
 H          3.1473750441       -2.2321414246       -2.1965316281
 H          3.0943357987        0.1211823659       -1.6271383710
 C          4.2055254962       -0.1218837437        0.1779518545
 C          5.4238259687       -0.6511875082       -0.5155260284
 C          5.3097380678        0.8120971110       -0.2131842766
 H          5.9230766882        1.2347383925        0.5679407904
 H          5.1218615393        1.4896022194       -1.0334815427
 H          6.1224164156       -1.2417307217        0.0567317883
 H          5.3265745097       -0.9592469744       -1.5451644889
 H          4.0926018126       -0.3376609368        1.2326520023
