  62
        -98.94223428
 C         -1.2489529100       -1.0862036001        0.0381106499
 C         -1.5942902198        0.0039303297        0.8683047002
 C         -2.6702750798        0.8850096399        0.3854626105
 C         -3.2145728400        0.6466530902       -0.8204022495
 C         -4.3444921100        1.3886825005       -1.4795822192
 C         -5.6935946600        0.7192972804       -1.1656686492
 C         -6.3652660298        1.1945704702        0.1220549810
 H         -6.7273351698        2.2151878402       -0.0182650687
 H         -7.2367691299        0.5571828902        0.2879329909
 C         -5.4829027097        1.1561069198        1.3722769909
 H         -4.9119940398        0.2260668098        1.3903372306
 H         -6.1386683996        1.1511742796        2.2449869510
 C         -4.5286838796        2.3555027997        1.4750868011
 H         -4.8233963797        3.1109636199        0.7470170113
 H         -4.6321632895        2.8178275995        2.4590057412
 C         -3.0403402297        2.0221564397        1.2984430908
 H         -2.5066363597        2.9194137998        0.9646405610
 H         -2.6114364496        1.7506480095        2.2685049707
 H         -6.3789055001        0.9088091407       -1.9942874791
 H         -5.5279437801       -0.3600494096       -1.1187823895
 H         -4.1671369101        1.3291394307       -2.5556268992
 H         -4.3432848199        2.4338787204       -1.1844804789
 O         -2.8174193401       -0.3868544696       -1.6131960098
 C         -1.8273041001       -1.2698959297       -1.2169419601
 O         -1.5606733802       -2.1537251095       -2.0534386503
 O         -1.0283508897        0.2304397494        1.9732860602
 C         -0.1482216000       -2.0303215302        0.4822571995
 C          1.0492516299       -1.9090229501       -0.4289493306
 C          1.8213332198       -2.9914111000       -0.8318201409
 C          2.9251051798       -2.7977150199       -1.6448036010
 C          3.3008599798       -1.5288682298       -2.0472194507
 C          2.5386385099       -0.4388157599       -1.6429210804
 C          1.4209561900       -0.6398317600       -0.8502909503
 H          0.8198914100        0.2117872700       -0.5718421100
 N          2.8807278399        0.8707035002       -2.0127500701
 S          2.6417037701        2.1139624400       -0.9184179698
 O          1.2454026901        2.4665998000       -0.8514286795
 O          3.5319734901        3.1611678400       -1.3741732496
 C          3.2260581602        1.4643239196        0.6373597700
 C          2.3498508803        1.1314364294        1.6495146900
 C          2.8568457504        0.5751970790        2.8143602198
 C          4.2194959004        0.3631165089        2.9481514497
 C          5.0884155403        0.7123064791        1.9249888096
 C          4.5886345502        1.2647258795        0.7580421698
 H          5.2314769102        1.5595367696       -0.0554718402
 H          6.1490576903        0.5522383191        2.0324001295
 H          4.6054526905       -0.0740741513        3.8555001395
 H          2.1731478205        0.3072840289        3.6042629999
 H          1.2905211503        1.2970501694        1.5275781402
 H          3.7591693399        0.9612729803       -2.5012768102
 H          4.1661644197       -1.3805063397       -2.6746181408
 H          3.5088042797       -3.6484020198       -1.9618789413
 H          1.5541867598       -3.9868028901       -0.5172442311
 H          0.1577607702       -1.6713494005        1.4772939996
 C         -0.6692512700       -3.4458209102        0.6150872792
 C         -0.0861500400       -4.3732401305        1.6380511790
 C         -1.4611571899       -3.8115532605        1.8337942192
 H         -2.3112622300       -4.4671292004        1.7189772992
 H         -1.6004954998       -3.0450013607        2.5822633194
 H          0.0064262700       -5.4200825405        1.3910832987
 H          0.7080795401       -3.9933971107        2.2626064890
 H         -0.9903769701       -3.8609641300       -0.3334046108
