  62
        -98.94151730
 C         -2.5691090545       -0.0497471791        0.1005398095
 C         -2.5273066014        1.0992795755        0.9284714000
 C         -2.0978661590        2.3464294319        0.2895671015
 C         -1.7560575007        2.3426899197       -1.0113164376
 C         -1.2674758092        3.5246722230       -1.8030389841
 C          0.2370162732        3.7809527112       -1.6374859742
 C          0.6437253956        4.4088647864       -0.3034875782
 H          1.6694402186        4.7653392759       -0.4166693179
 H          0.0150925566        5.2771101473       -0.1007316358
 C          0.5923291536        3.4424039935        0.8881454004
 H          0.5926455055        2.4116370870        0.5237765764
 H          1.4975924535        3.5560131069        1.4905425120
 C         -0.5976933716        3.6450990406        1.8268680539
 H         -0.5105891810        4.6146023844        2.3238662960
 H         -0.5570524316        2.8671606047        2.5942672208
 C         -1.9704897279        3.5699365767        1.1465170706
 H         -2.7338651174        3.5095391748        1.9267058931
 H         -2.1452485316        4.4675355184        0.5533780987
 H          0.7658977400        2.8325503949       -1.7627973135
 H          0.5467557722        4.4513432927       -2.4427446653
 H         -1.4673743060        3.3004701690       -2.8529788771
 H         -1.8273877295        4.4175510561       -1.5229108946
 O         -1.8276280897        1.2263861538       -1.7800204822
 C         -2.1795897988       -0.0019362998       -1.2400261297
 O         -2.1225641869       -0.9423278804       -2.0549394562
 H         -0.2764485638       -0.8624350221        0.8339691635
 C         -0.4495021821       -1.8818655453        0.5182849281
 C         -1.7543792205       -2.3541811994        0.4283779719
 C         -1.9523358625       -3.6739439437        0.0498500740
 C         -0.8679260127       -4.4859432672       -0.2429773312
 C          0.4236722259       -3.9984004265       -0.1931398152
 C          0.6313891388       -2.6714146324        0.1744260429
 N          1.9238757446       -2.1174620690        0.1513039551
 S          2.1823457467       -0.4877511471        0.4378475263
 O          1.9575514187       -0.1581616097        1.8306797327
 O          1.4450386078        0.2767681801       -0.5355561858
 C          3.9267292032       -0.4016893806        0.0818668352
 C          4.8381641252       -0.3913114939        1.1202588702
 C          6.1920753355       -0.3548029281        0.8247849661
 C          6.6093145951       -0.3314710533       -0.4972955975
 C          5.6827315649       -0.3397981617       -1.5296023744
 C          4.3280564056       -0.3755268721       -1.2402693895
 H          3.5706018569       -0.3749553986       -2.0072014789
 H          6.0100340628       -0.3181402654       -2.5565755605
 H          7.6630538016       -0.3035346278       -0.7253836224
 H          6.9142816001       -0.3444579241        1.6251177561
 H          4.4658887706       -0.4017321276        2.1320170473
 H          2.6588140199       -2.7180872519        0.4923893618
 H          1.2638076408       -4.6248692567       -0.4481742498
 H         -1.0359300331       -5.5125489239       -0.5315511626
 H         -2.9527778626       -4.0658870089       -0.0329434651
 C         -2.8621739080       -1.3845043048        0.7637087332
 H         -2.7949414380       -1.1648078439        1.8442122203
 C         -4.2587382892       -1.9384000607        0.5260719598
 C         -5.3757345393       -1.0528802971        0.0627403438
 C         -4.8298441840       -2.1086783055       -0.8486202712
 H         -5.4395867635       -2.9785634017       -1.0448264193
 H         -4.2156937756       -1.8028897164       -1.6804602064
 H         -5.1377375254       -0.0209444950       -0.1526933095
 H         -6.3554696400       -1.1956086902        0.4937155814
 H         -4.5255987555       -2.6938683799        1.2589657056
 O         -2.8256187660        1.0788561749        2.1548765533
