  62
        -98.94463553
 C          1.6887702887        1.3891849058        0.2335268675
 C          1.6472284666        0.3327400874       -0.7090165113
 C          2.9533391345       -0.1734916663       -1.1589881362
 C          4.0805970652        0.3832952824       -0.6805615790
 C          5.4716899044       -0.0723357918       -1.0112730800
 C          5.9649206885       -1.1209436903       -0.0045100535
 C          4.9706085646       -2.2557527950        0.2426790374
 H          5.4373391855       -2.9503097763        0.9446196984
 H          4.0813785488       -1.8533166903        0.7339628988
 C          4.5475514105       -3.0158153931       -1.0221865875
 H          4.5714044442       -4.0870753489       -0.8113425439
 H          5.2623905558       -2.8275108035       -1.8241394239
 C          3.1361744261       -2.6921891932       -1.5165930529
 H          2.4238623161       -2.7927710954       -0.6928164019
 H          2.8627604930       -3.4334646286       -2.2726598576
 C          2.9508492743       -1.3060008720       -2.1467259458
 H          3.7070214340       -1.1484994880       -2.9186214307
 H          1.9650451731       -1.2893604104       -2.6207824009
 H          6.1582359375       -0.6225360263        0.9481813301
 H          6.9069970834       -1.5341175701       -0.3692937256
 H          6.1350761604        0.7933714382       -0.9746973076
 H          5.4840173303       -0.4855169518       -2.0178284927
 O          4.0795051762        1.4071272771        0.2105232465
 C          2.8914248061        1.9189223546        0.7041790876
 O          3.0347470920        2.8329239124        1.5413062431
 O          0.5830203291       -0.1616730631       -1.1632224924
 C          0.4050930436        1.9652732610        0.8097939795
 C         -0.2571654074        0.9031947343        1.6545035812
 C          0.3985107715        0.4522439938        2.7982385460
 C         -0.1611405898       -0.5309053211        3.5902913392
 C         -1.3764137768       -1.1003630844        3.2473484972
 C         -2.0345531392       -0.6639658083        2.1058505484
 C         -1.4816584110        0.3453393516        1.3282045557
 H         -2.0135707156        0.6851793864        0.4580390121
 N         -3.2759422425       -1.2068695105        1.7230741177
 S         -3.3834422583       -1.8838393857        0.1834082226
 O         -4.5701438794       -2.7131703139        0.2460075233
 O         -2.1613021273       -2.5642417718       -0.1749644639
 C         -3.7039638838       -0.5090716042       -0.8986941144
 C         -4.9075890083        0.1536729552       -0.7564683925
 C         -5.1803852640        1.2298921060       -1.5850300304
 C         -4.2515168264        1.6182830395       -2.5392225762
 C         -3.0506513792        0.9378642622       -2.6713428613
 C         -2.7678342720       -0.1383572017       -1.8438377835
 H         -1.8286328287       -0.6678508547       -1.8925166990
 H         -2.3250036428        1.2429674824       -3.4089713997
 H         -4.4619014089        2.4577200850       -3.1834614363
 H         -6.1118126757        1.7633605128       -1.4844325023
 H         -5.6023951993       -0.1869084959       -0.0069818497
 H         -3.6627644138       -1.8514504029        2.3991417016
 H         -1.8090655278       -1.8788715578        3.8581448514
 H          0.3553620990       -0.8660014956        4.4774711999
 H          1.3551066719        0.8872699874        3.0555447875
 H          0.7149857425        2.7818053270        1.4771849564
 C         -0.4850226325        2.5281438231       -0.2772251180
 C         -1.5820868016        3.4844638067        0.0792402656
 C         -0.3676722495        3.9738887062       -0.6497790031
 H         -0.4636499478        4.2461897319       -1.6898856562
 H          0.3496698528        4.5725386216       -0.1071754147
 H         -2.5151064010        3.4187602577       -0.4598806220
 H         -1.6904818008        3.7528519545        1.1191399880
 H         -0.6688337303        1.8229877454       -1.0780596889
