  62
        -98.94075226
 C          2.0173955860        1.3321160148        0.3732130227
 C          2.5008729424        0.6335313694       -0.7610808545
 C          3.7144849336       -0.1723670975       -0.5472073554
 C          4.2752411498       -0.2197312619        0.6739742603
 C          5.4782466679       -1.0399376212        1.0375441845
 C          5.0697786652       -2.4303311255        1.5440387732
 C          4.0661518746       -3.1469412813        0.6402741319
 H          3.8745976177       -4.1281950647        1.0802103058
 H          3.1197489147       -2.6008137407        0.6519378254
 C          4.5305700564       -3.3201738975       -0.8126207726
 H          4.3074351846       -4.3404711018       -1.1316940357
 H          5.6118396003       -3.1911493733       -0.8734456108
 C          3.8513054782       -2.3824425024       -1.8126793268
 H          4.0854239311       -2.7346532074       -2.8208591897
 H          2.7661053086       -2.4397244295       -1.6919302873
 C          4.2678089916       -0.9081619334       -1.7349314757
 H          5.3566329962       -0.8310404402       -1.7646449736
 H          3.8619978513       -0.4037162692       -2.6167755039
 H          4.6211979189       -2.3206502599        2.5342147380
 H          5.9697938693       -3.0394941673        1.6449178741
 H          6.1239815318       -1.1341195055        0.1667333765
 H          6.0227281244       -0.5208750386        1.8282865800
 O          3.7674569712        0.4423560789        1.7450245014
 C          2.6210327543        1.2117297404        1.6272827887
 O          2.2380484184        1.7243534196        2.6983022655
 H         -0.2365285730       -0.1659079814        0.9752218890
 C         -0.7221078668        0.2134407601        0.0835847456
 C         -0.3244645809        1.4434386531       -0.4284243622
 C         -0.9569870556        1.9214237952       -1.5675179567
 C         -1.9406376635        1.1713166402       -2.1893115532
 C         -2.3190784676       -0.0602277915       -1.6891179823
 C         -1.7012660918       -0.5422432848       -0.5414785904
 N         -2.0870522194       -1.7876839056       -0.0175196307
 S         -3.7215914140       -2.1350537024        0.0644549747
 O         -3.8555073654       -3.0626044320        1.1662029276
 O         -4.1835444922       -2.6108726628       -1.2156350318
 C         -4.5133887758       -0.5836798116        0.4521520042
 C         -5.4271429601       -0.0369904512       -0.4254653309
 C         -6.0047966275        1.1843317672       -0.1171249691
 C         -5.6575454369        1.8356730186        1.0559945031
 C         -4.7408619065        1.2712674692        1.9301047542
 C         -4.1616872692        0.0498620644        1.6276572909
 H         -3.4496256046       -0.4175664030        2.2891586554
 H         -4.4721726961        1.7786943652        2.8428078189
 H         -6.1034286934        2.7886455801        1.2931605142
 H         -6.7193106850        1.6245410269       -0.7937552654
 H         -5.6662594642       -0.5764609745       -1.3274000385
 H         -1.6116363068       -2.0436019447        0.8347042129
 H         -3.0674376105       -0.6643510961       -2.1758734896
 H         -2.4141676766        1.5484297039       -3.0827745088
 H         -0.6599031754        2.8677837396       -1.9876029785
 C          0.7632896550        2.1878391242        0.3070556422
 H          0.4418669285        2.2960766870        1.3563808712
 C          0.9939165828        3.5972665159       -0.2173217970
 C          2.3202537521        4.2751629634       -0.0495467631
 C          1.8472068816        3.8819049535       -1.4151696750
 H          1.5345780317        4.6640967265       -2.0915828544
 H          2.3179650683        3.0444708704       -1.9045449516
 H          2.3311054783        5.3225805732        0.2123223842
 H          3.1209795487        3.7056193321        0.4000314955
 H          0.1178195702        4.2243162128       -0.0838795989
 O          1.9607828171        0.6709538943       -1.8956197582
