  62
        -98.93957718
 C         -2.6256844180       -0.2862987088        0.5511459970
 C         -2.2265052182        0.2155125108       -0.7139836012
 C         -2.1128761187        1.6772741968       -0.8148826706
 C         -2.3442792166        2.4471827223        0.2625904457
 C         -2.3206267820        3.9512852259        0.3043033495
 C         -0.9212926362        4.5558908580        0.4780956414
 C         -0.0234215490        4.4810529090       -0.7572078514
 H         -0.5617162911        4.8672370895       -1.6235316926
 H          0.8254659633        5.1435206718       -0.5771234737
 C          0.5099904182        3.0751704255       -1.0648081813
 H          0.4254282036        2.4408585190       -0.1789026054
 H          1.5764356535        3.1287243858       -1.2994671663
 C         -0.1653015150        2.3694369707       -2.2408845086
 H          0.0744404485        2.8940093758       -3.1694519271
 H          0.2526567990        1.3605266569       -2.3030856278
 C         -1.6909825128        2.2562125113       -2.1311403302
 H         -2.1510680269        3.2336708006       -2.2806912910
 H         -2.0376357021        1.5798719540       -2.9168393138
 H         -1.0521644901        5.6073237025        0.7448225000
 H         -0.4257619711        4.0567345650        1.3142372070
 H         -2.9317238096        4.2455978010        1.1605001931
 H         -2.7784496319        4.3472646406       -0.6029170424
 O         -2.6693981703        1.9236259535        1.4754455498
 C         -2.7837743788        0.5550370596        1.6540001184
 O         -3.0323387990        0.2138756228        2.8296389700
 O         -1.9991087471       -0.5045727031       -1.7193513232
 C         -2.7476771588       -1.7797823705        0.8155547869
 C         -1.5100307132       -2.4560731366        0.2811488839
 C         -1.5070952330       -3.4547357002       -0.6827581749
 C         -0.3119259484       -3.9572646014       -1.1692890750
 C          0.9016228179       -3.4729891744       -0.7134423669
 C          0.9053042033       -2.4934493739        0.2669959658
 C         -0.2883106647       -2.0042464297        0.7649409395
 H         -0.2717828435       -1.2157918926        1.5095953507
 N          2.1503522599       -1.9359077895        0.7044285486
 S          2.3099796758       -0.3511648122        0.1262750182
 O          1.6518142276        0.5780523190        1.0241448016
 O          1.9046854509       -0.3352750322       -1.2545885478
 C          4.0773217326       -0.1365005775        0.2310403106
 C          4.6259707770        0.6729154755        1.2056481840
 C          6.0056052185        0.7888817256        1.2825956365
 C          6.8074655859        0.0931809683        0.3911493977
 C          6.2412741681       -0.7166099360       -0.5826406784
 C          4.8635668390       -0.8346814326       -0.6652469636
 H          4.3758893571       -1.4447461935       -1.4073520880
 H          6.8679897469       -1.2550538270       -1.2751194436
 H          7.8803535797        0.1835737663        0.4546696245
 H          6.4476077473        1.4194888283        2.0372363625
 H          3.9631024608        1.1979663257        1.8748247234
 H          2.1948407708       -1.8849138198        1.7147846710
 H          1.8370717687       -3.8321640741       -1.1098444205
 H         -0.3278465537       -4.7215927332       -1.9313262305
 H         -2.4422384750       -3.8129167451       -1.0816884445
 H         -2.7324014907       -1.8712218806        1.9148176262
 C         -4.0487414095       -2.4123669161        0.3486517365
 C         -5.3068059129       -1.6018083454        0.2611797446
 C         -4.6603154072       -2.1190943467       -0.9868789383
 H         -5.1448689334       -2.9285339233       -1.5132737588
 H         -4.1456567950       -1.4242649141       -1.6305182633
 H         -6.2315825860       -2.0516040620        0.5899247990
 H         -5.2331489207       -0.5451062475        0.4755658747
 H         -4.1572981286       -3.4265490505        0.7210451221
