  62
        -98.93775412
 C         -1.9578587014       -1.1857052002       -0.1126125061
 C         -2.4236146039       -0.0095318073       -0.7454302035
 C         -3.8796553931        0.2164221611       -0.7049741500
 C         -4.6735260017       -0.6849312299       -0.1022673121
 C         -6.1770386689       -0.6779337982        0.0170388963
 C         -6.8520879710        0.6532692970        0.3766183803
 C         -6.0284465672        1.5755556103        1.2872917797
 H         -6.6498272634        1.8905598529        2.1276696765
 H         -5.1753660950        1.0329006318        1.6980590863
 C         -5.5343435304        2.8354199547        0.5719717424
 H         -5.2949866295        3.5938910501        1.3211886998
 H         -6.3460623184        3.2294265346       -0.0435644441
 C         -4.2914682766        2.6525907299       -0.2985539861
 H         -3.4151738939        2.4831105353        0.3335437919
 H         -4.1183205194        3.5866047482       -0.8387341589
 C         -4.3595797415        1.5014608416       -1.3154006457
 H         -5.3584543459        1.4022812879       -1.7334744897
 H         -3.6624118766        1.7289802435       -2.1265770705
 H         -7.1052757490        1.1914755668       -0.5357697537
 H         -7.7952320149        0.4059776990        0.8667617558
 H         -6.5941324158       -1.0475164987       -0.9241816475
 H         -6.4041255837       -1.4224554491        0.7837113812
 O         -4.1796673259       -1.8106689700        0.4875564383
 C         -2.8235719160       -2.0843874236        0.5083945150
 O         -2.5189509669       -3.1380727098        1.1031869451
 O         -1.6684055344        0.8126156882       -1.3261875491
 C         -0.4728741751       -1.5058907541       -0.0929311595
 C          0.2759170972       -0.3686869103        0.5574717551
 C         -0.0679636241       -0.0119310728        1.8599238133
 C          0.5593012595        1.0424117340        2.4930750495
 C          1.5511116359        1.7583027670        1.8446404784
 C          1.9045362664        1.4096601921        0.5471700827
 C          1.2732128568        0.3455615610       -0.0856350284
 H          1.5529049916        0.1133699936       -1.0987062632
 N          2.8885175709        2.1385547017       -0.1380035689
 S          4.0580083846        1.3791403461       -1.0562466905
 O          5.0449906927        2.4073621417       -1.3011819076
 O          3.4720428683        0.7661807587       -2.2199518148
 C          4.7377763003        0.1372245698        0.0279785634
 C          5.7036878220        0.5215824532        0.9379531962
 C          6.1994714735       -0.4174076060        1.8273692188
 C          5.7163635425       -1.7170654940        1.7981403407
 C          4.7466709833       -2.0865831312        0.8791092265
 C          4.2495387950       -1.1527008820       -0.0165599204
 H          3.4998130869       -1.4056095776       -0.7476006491
 H          4.3736976517       -3.0981807614        0.8555854322
 H          6.0995259655       -2.4477233789        2.4929168152
 H          6.9575556994       -0.1345130470        2.5398177837
 H          6.0594491517        1.5389819591        0.9192745589
 H          3.2860298919        2.9021867929        0.3888320734
 H          2.0363950008        2.5893720274        2.3335258182
 H          0.2765690895        1.3106697340        3.4999335763
 H         -0.8472979008       -0.5695675219        2.3623070367
 H         -0.3656140575       -2.3965313115        0.5430495484
 C          0.0081334925       -1.8451619298       -1.4874665523
 C          1.1752529638       -2.7653503368       -1.6757123683
 C         -0.2091119100       -3.2317836924       -2.0110424153
 H         -0.4777092950       -3.3544830752       -3.0495546674
 H         -0.6846450683       -3.9419418901       -1.3499619755
 H          1.8619882651       -2.5673885526       -2.4857552668
 H          1.6367601993       -3.1714579142       -0.7880163142
 H         -0.1154384960       -1.0269592985       -2.1879502511
