  62
        -98.94877484
 C         -0.9436468178       -1.2765904410        0.0478916969
 C         -1.9080138323       -1.0187043818        1.0488521685
 C         -2.6358870477        0.2507905865        0.9276759940
 C         -2.3266556596        1.0911649312       -0.0766895674
 C         -3.0223732614        2.3942353494       -0.3437414631
 C         -4.1986152924        2.2075115262       -1.3122242777
 C         -5.1377848412        1.0647964470       -0.9265434173
 H         -5.9464547921        1.0458271217       -1.6602187909
 H         -4.6010845650        0.1174522313       -1.0136864526
 C         -5.7313304312        1.1804400175        0.4843994821
 H         -5.6346276729        2.2050740144        0.8453281547
 H         -6.7984154760        0.9533897479        0.4358314542
 C         -5.1202084597        0.2238119403        1.5101637929
 H         -5.7504071669        0.2344872586        2.4035489608
 H         -5.1321151276       -0.7947705703        1.1139611332
 C         -3.6888823412        0.5481108126        1.9577011729
 H         -3.6291355939        1.5894805748        2.2821145888
 H         -3.4555073733       -0.0887961059        2.8164161677
 H         -3.7981282103        2.0001002136       -2.3069253200
 H         -4.7601282742        3.1423922105       -1.3580964992
 H         -3.3747757682        2.8104899114        0.5981760977
 H         -2.3033513933        3.0854276427       -0.7857642454
 O         -1.3718680616        0.8233581169       -1.0024923215
 C         -0.6560219369       -0.3640153963       -0.9673240062
 O          0.1884889923       -0.4844356883       -1.8733848047
 H          1.1062097306       -0.5136515688        1.2750161904
 C          1.8006169153       -1.1890102164        0.7970151942
 C          1.3273948568       -2.3114909382        0.1308936201
 C          2.2496897937       -3.1710901827       -0.4549678016
 C          3.6049850373       -2.9015027152       -0.3839462234
 C          4.0693106517       -1.7672216170        0.2562215462
 C          3.1550422143       -0.9037219726        0.8490095360
 N          3.5844696253        0.2600758057        1.5077586467
 S          2.6951714723        1.6652856657        1.4086627224
 O          3.6291689878        2.6986389529        1.8108133746
 O          1.5009111935        1.5684038144        2.2127751499
 C          2.2623998959        1.9241381780       -0.3027594939
 C          1.1071150694        2.6288781182       -0.5694687700
 C          0.7806150838        2.9139016308       -1.8845746009
 C          1.6084182004        2.4847964222       -2.9082993423
 C          2.7656339635        1.7787033188       -2.6251148750
 C          3.1037599787        1.5009252714       -1.3110934298
 H          4.0001099944        0.9514224379       -1.0747397059
 H          3.4037160282        1.4370885508       -3.4241243038
 H          1.3444840506        2.6953142849       -3.9326935800
 H         -0.1239233320        3.4571961247       -2.1074533819
 H          0.4792318426        2.9241867764        0.2573904577
 H          4.5758340030        0.4442436224        1.4572774493
 H          5.1257549923       -1.5504220019        0.3014097382
 H          4.3092270200       -3.5782966504       -0.8430283321
 H          1.9051169928       -4.0531916951       -0.9693612405
 C         -0.1584551455       -2.5718781235        0.0966208952
 H         -0.4434617154       -3.0530361510        1.0452271697
 C         -0.5736229790       -3.4747850948       -1.0492778481
 C         -0.6286203443       -4.9619863300       -0.8709289555
 C         -1.8977280492       -4.1722783893       -0.9724163554
 H         -2.4913321192       -4.2559725388       -1.8703821216
 H         -2.4817063768       -4.0231228206       -0.0756373945
 H         -0.3525245874       -5.5919009201       -1.7031776915
 H         -0.3605720356       -5.3616054512        0.0955601322
 H         -0.2694116488       -3.0833058515       -2.0136489728
 O         -2.1493335470       -1.8140820200        1.9989309019
