  62
        -98.94618974
 C          1.3936280100        1.1423527608       -0.1560547945
 C          2.5120300480        1.1771872234        0.7143452880
 C          3.2586325061       -0.0789060845        0.8576327188
 C          2.8283189002       -1.1751374375        0.2065897736
 C          3.5111264727       -2.5112206193        0.2402972005
 C          4.5235929133       -2.6479300950       -0.9050446911
 C          5.4780659869       -1.4603416746       -1.0283307400
 H          6.1676673715       -1.6802906894       -1.8461723345
 H          4.9093301808       -0.5737117146       -1.3175707378
 C          6.2783122941       -1.1539968480        0.2453936131
 H          6.2668245989       -2.0199299229        0.9083516381
 H          7.3192405526       -0.9719099197       -0.0304024175
 C          5.8000745210        0.0791863235        1.0144295330
 H          6.5593025688        0.3296874157        1.7601991525
 H          5.7212447958        0.9287402381        0.3312858537
 C          4.4646074743       -0.0705728028        1.7543317470
 H          4.3470804267        0.7995577017        2.4068935637
 H          4.4891138879       -0.9657561714        2.3791323659
 H          5.0977739107       -3.5634992521       -0.7514728972
 H          3.9743437666       -2.7439565257       -1.8443281294
 H          2.7541127449       -3.2898481231        0.1375379491
 H          4.0131574618       -2.6325218907        1.1981305930
 O          1.7387308380       -1.1771348890       -0.5998541901
 C          0.9961758350       -0.0249923362       -0.8105219644
 O          0.0366779113       -0.1774754363       -1.5886609429
 O          2.8666839593        2.2102836133        1.3426324531
 C          0.5682424073        2.4107681507       -0.3062157581
 C         -0.7502225693        2.1557879131        0.3788313897
 C         -0.8397034939        2.2962465342        1.7609069832
 C         -2.0024437129        1.9656535068        2.4318257332
 C         -3.0948413272        1.4691447264        1.7410235052
 C         -3.0091323701        1.3148371191        0.3640858374
 C         -1.8533378742        1.6788602033       -0.3126377455
 H         -1.8019747149        1.5462050209       -1.3813125458
 N         -4.1022933094        0.7679160398       -0.3440096072
 S         -4.5174236221       -0.8081959395        0.0445948896
 O         -5.4432447958       -1.2254092327       -0.9841628371
 O         -5.0181270698       -0.8340966991        1.3962792818
 C         -3.0140334887       -1.7617670671       -0.0629032103
 C         -2.1492386834       -1.7828417030        1.0125549417
 C         -0.9690999846       -2.5000380374        0.9061568482
 C         -0.6769252006       -3.1805628939       -0.2647576065
 C         -1.5532831841       -3.1454260798       -1.3367934354
 C         -2.7314360852       -2.4249983732       -1.2392380252
 H         -3.4407466015       -2.3724733816       -2.0498255394
 H         -1.3157436180       -3.6671518172       -2.2499705625
 H          0.2454380351       -3.7335899294       -0.3468463689
 H         -0.2768984931       -2.5167684846        1.7338443424
 H         -2.4098229369       -1.2457457443        1.9103023842
 H         -3.9831347256        0.8306866703       -1.3460439000
 H         -3.9991330735        1.1756441576        2.2491124898
 H         -2.0583769407        2.0866449150        3.5032175443
 H          0.0231980807        2.6535120240        2.3054484298
 H          1.1087884950        3.1815040623        0.2588053581
 C          0.4395010600        2.8591268601       -1.7461985771
 C         -0.0867724601        4.2318633738       -2.0382087581
 C          1.3600080154        3.9185913143       -2.2701357515
 H          1.7137043525        3.8362964632       -3.2870072453
 H          2.0882707521        4.3316702488       -1.5877135257
 H         -0.7278519900        4.3684398781       -2.8957036770
 H         -0.3423560817        4.8558533437       -1.1951439637
 H          0.1727022214        2.0590762752       -2.4256190935
