  62
        -98.94427506
 C         -1.8239695699       -1.0954616589       -0.1392838007
 C         -2.3077752398        0.0351361514       -0.8403276002
 C         -3.7705087297        0.1782092518       -0.8884564697
 C         -4.5452161498       -0.7532033082       -0.3030085398
 C         -6.0430726998       -0.6983755178       -0.2271044694
 C         -6.5078977792        0.0119831520        1.0520876510
 C         -5.8140875988        1.3510129717        1.3026313812
 H         -6.2420050584        1.7733510716        2.2143954314
 H         -4.7539058388        1.1735023514        1.4972462508
 C         -5.9536367688        2.3627512021        0.1566630215
 H         -6.7793501591        2.0737581725       -0.4945623684
 H         -6.2004927985        3.3389887820        0.5792152718
 C         -4.6884154990        2.5484656620       -0.6832183188
 H         -4.8254995990        3.4303460622       -1.3148563385
 H         -3.8366317288        2.7461207816       -0.0271578190
 C         -4.3227111896        1.3781172822       -1.6048860292
 H         -5.1874890998        1.1028040826       -2.2121328791
 H         -3.5268133897        1.7189137121       -2.2738518794
 H         -6.3068054292       -0.6421134483        1.9036241407
 H         -7.5866871092        0.1654907523        0.9889363213
 H         -6.4272632699       -0.1800696674       -1.1034236091
 H         -6.4253257801       -1.7204928677       -0.2238989596
 O         -4.0426756999       -1.8386218785        0.3391193697
 C         -2.6751435200       -2.0303441089        0.4496204793
 O         -2.3471487400       -3.0510653692        1.0873839389
 H          1.8109441803        0.2258148603       -0.8751824313
 C          1.3944716606        0.5462217401        0.0647962189
 C          0.3165932406       -0.1190743997        0.6258800290
 C         -0.1986643289        0.3437613200        1.8351306593
 C          0.3339456115        1.4583420897        2.4511688995
 C          1.4023995016        2.1292494496        1.8816239594
 C          1.9302593011        1.6706416098        0.6812762491
 N          3.0072749011        2.3358985297        0.0832862290
 S          4.1425345007        1.5204224697       -0.8196911416
 O          5.3056648509        2.3824006493       -0.7917837416
 O          3.6303390202        1.2076955902       -2.1300413915
 C          4.4912971805        0.0114976793        0.0691999179
 C          4.6510373309        0.0540050089        1.4402073079
 C          4.9395935708       -1.1195247814        2.1176661975
 C          5.0709237102       -2.3090813512        1.4176516471
 C          4.9173365599       -2.3341881708        0.0405754571
 C          4.6241796600       -1.1637051405       -0.6409275425
 H          4.4895875997       -1.1386500702       -1.7101620624
 H          5.0208860395       -3.2589014407       -0.5043284432
 H          5.2942686501       -3.2213026515        1.9480847767
 H          5.0603152111       -1.1029499818        3.1888549174
 H          4.5497594213        0.9908079787        1.9629186682
 H          3.4041707515        3.0948998794        0.6157071691
 H          1.8152730119        3.0070481594        2.3549228295
 H         -0.0833268481        1.8095560096        3.3829060197
 H         -1.0353934089       -0.1803080699        2.2774533394
 C         -0.3275025399       -1.3240315194       -0.0136531211
 H         -0.2066979799       -2.1795274396        0.6667829086
 C          0.2570091096       -1.6898659391       -1.3611336314
 C          1.4840199994       -2.5450975994       -1.4432732320
 C          0.1506887991       -3.1083470690       -1.8313546818
 H         -0.0497405812       -3.2918445986       -2.8763231218
 H         -0.3225627809       -3.8151494590       -1.1652310919
 H          2.1986531692       -2.3388135594       -2.2254884621
 H          1.9263225696       -2.8753829498       -0.5156216222
 H          0.1289307596       -0.9071282689       -2.1006165411
 O         -1.5613980497        0.8832653414       -1.3956036002
