  62
        -98.93868501
 C          1.7975491748        0.1641131832        0.1773410692
 C          2.8354997600        0.8851640410        0.8108796126
 C          4.1769334025        0.2780366203        0.7683400665
 C          4.3350723152       -0.9103190006        0.1598671188
 C          5.6167823100       -1.6703647228       -0.0422936000
 C          6.2366866113       -1.3338360461       -1.4092370598
 C          7.1550428527       -0.1122772802       -1.4171409470
 H          8.0791899452       -0.3554119624       -0.8885291858
 H          7.4170715618        0.0898665328       -2.4582820528
 C          6.5608429709        1.1586029185       -0.8041932343
 H          5.5273247798        1.2778252463       -1.1344741667
 H          7.1235227393        2.0107761108       -1.1904393792
 C          6.6251229621        1.1754388462        0.7303006992
 H          7.2865760883        0.3775263064        1.0673601276
 H          7.0766512910        2.1125415385        1.0624182159
 C          5.2703425859        1.0595600625        1.4447102837
 H          5.4294442648        0.6433003382        2.4450554747
 H          4.8474741717        2.0589869553        1.5869750923
 H          5.4192966474       -1.1855530120       -2.1197693405
 H          6.8150594914       -2.1938384421       -1.7531123183
 H          6.3150146436       -1.4730422679        0.7656198919
 H          5.3547227301       -2.7303988585       -0.0309819500
 O          3.3033514938       -1.5799653215       -0.4246860512
 C          2.0168394780       -1.0677710780       -0.4380736948
 O          1.1818062966       -1.7898191814       -1.0149298981
 H         -1.9437878344       -0.4052448428       -0.7867104305
 C         -1.6988284647       -0.6929884004        0.2216927755
 C         -0.5578225505       -0.2078872223        0.8398568817
 C         -0.2718372521       -0.6251938379        2.1385432428
 C         -1.0937719703       -1.5218655266        2.7907692599
 C         -2.2272065946       -2.0138641469        2.1666816766
 C         -2.5258033339       -1.5991120178        0.8748921634
 N         -3.6636751033       -2.0882803973        0.2228200486
 S         -4.4900021285       -1.1842363440       -0.9023155431
 O         -5.8106321619       -1.7776584280       -0.9330941765
 O         -3.7890041954       -1.1592357519       -2.1615029685
 C         -4.5911666878        0.4691049947       -0.2354788363
 C         -4.8708231798        0.6463636647        1.1051626594
 C         -4.9650732926        1.9351439226        1.6050100645
 C         -4.7869382285        3.0203933608        0.7608214508
 C         -4.5168604366        2.8266682222       -0.5845788972
 C         -4.4175902389        1.5395099103       -1.0883762796
 H         -4.2027358068        1.3418039381       -2.1262155258
 H         -4.3797403572        3.6705635876       -1.2415996932
 H         -4.8591114370        4.0224391683        1.1533323912
 H         -5.1759214691        2.0886912040        2.6510811113
 H         -5.0097029447       -0.2116154595        1.7420541563
 H         -4.2697188043       -2.6754335462        0.7750283660
 H         -2.8674730762       -2.7225307439        2.6693978858
 H         -0.8540764907       -1.8410598271        3.7937902412
 H          0.6155696798       -0.2420841160        2.6236179827
 C          0.3957898848        0.7485667222        0.1705002500
 H          0.4574595367        1.6584687881        0.7855538972
 C         -0.0048263460        1.1398067162       -1.2352791748
 C         -0.9994088600        2.2383486406       -1.4556615200
 C          0.4478981926        2.4639120115       -1.7713725678
 H          0.7487095317        2.5258610493       -2.8065411341
 H          1.0253428355        3.0935260024       -1.1103093413
 H         -1.4128215684        2.7207113248       -0.5830163474
 H         -1.6927519521        2.1416618524       -2.2769772969
 H         -0.0111343652        0.2987906622       -1.9204757723
 O          2.6508058745        1.9917205533        1.3862580678
