  62
        -98.94698659
 C          1.0729345700        1.7203690617        0.4191697078
 C          1.8289645967        1.2497010725       -0.6849881047
 C          2.8530004908        0.2360619088       -0.3775173657
 C          3.0210228553       -0.1784628851        0.8901459452
 C          4.0075671075       -1.2169956589        1.3378166527
 C          3.3923749792       -2.6224339435        1.3411393303
 C          2.6850228690       -2.9968165264        0.0385065902
 H          2.3494133685       -4.0321991111        0.1350775834
 H          1.7865418438       -2.3881631494       -0.0860735397
 C          3.5499103061       -2.8569803290       -1.2215446539
 H          4.6069946371       -2.8343856111       -0.9513683293
 H          3.3921153894       -3.7360134307       -1.8500317744
 C          3.2113203926       -1.6347606808       -2.0778684959
 H          2.1297182341       -1.5960956926       -2.2339780648
 H          3.6803852337       -1.7634544843       -3.0576006204
 C          3.6754359993       -0.2811409920       -1.5234354206
 H          4.7307251103       -0.3395046027       -1.2454161780
 H          3.5713456396        0.4580906827       -2.3234462938
 H          4.1878518427       -3.3431792590        1.5408390878
 H          2.6660282534       -2.6837855050        2.1548588188
 H          4.8743571229       -1.1910583867        0.6801107721
 H          4.3255124801       -0.9689787796        2.3522973496
 O          2.2802485161        0.2956632578        1.9242645523
 C          1.2909169506        1.2428999552        1.7134297715
 O          0.6848995730        1.5816480758        2.7502922927
 H         -0.4838455228        0.4400906273       -1.1327930748
 C         -1.3908926272        0.9650644031       -0.8827240762
 C         -1.3406767528        2.1624467520       -0.1888183361
 C         -2.5364871884        2.8249063046        0.0750153162
 C         -3.7431312797        2.2977923986       -0.3446579625
 C         -3.7893532341        1.0840178004       -1.0087464405
 C         -2.6030956976        0.4137209971       -1.2757810332
 N         -2.6021865970       -0.8324240586       -1.9264417995
 S         -1.6609134475       -2.0582038547       -1.2800823399
 O         -0.2694197780       -1.8326899989       -1.5668724397
 O         -2.2328260503       -3.2728925503       -1.8201557350
 C         -1.9725728134       -1.9625959070        0.4722427920
 C         -3.1686673098       -2.4618112926        0.9508625807
 C         -3.4665597398       -2.3139061660        2.2952923743
 C         -2.5764709723       -1.6567338797        3.1321945306
 C         -1.3792537555       -1.1626158821        2.6385121520
 C         -1.0723981628       -1.3205615827        1.2964030555
 H         -0.1476807316       -0.9465687082        0.8853927714
 H         -0.6873733700       -0.6325424452        3.2751879322
 H         -2.8138061882       -1.5275411458        4.1763307538
 H         -4.3932791534       -2.7021438661        2.6860124634
 H         -3.8318953526       -2.9675444638        0.2678580229
 H         -3.5211882607       -1.1773807793       -2.1645527454
 H         -4.7318729033        0.6599075032       -1.3192345637
 H         -4.6608889836        2.8259306419       -0.1369247795
 H         -2.5148382372        3.7574584840        0.6170148753
 C         -0.0303440874        2.7531253103        0.2849701893
 H         -0.1977087265        3.1405534057        1.3005242588
 C          0.3657655808        3.9166597563       -0.6075831909
 C         -0.0888466172        5.3063497440       -0.2831509561
 C          1.3491447969        4.9267134138       -0.0998935542
 H          2.0860870881        5.3167154941       -0.7855051720
 H          1.7175772910        4.7971809045        0.9078059153
 H         -0.6813976571        5.4525791765        0.6070580840
 H         -0.3472344713        5.9644939311       -1.0983865362
 H          0.4394471269        3.6399334845       -1.6517954514
 O          1.6782517442        1.6475485530       -1.8698170210
