  62
        -98.94215152
 C         -0.3797537499       -1.9289945301        0.5222531727
 C         -1.3097109936       -1.8209713228       -0.5408258040
 C         -2.5670958517       -1.1253772054       -0.2279023705
 C         -2.7732357673       -0.6636307186        1.0183021632
 C         -3.9372414955        0.1797079618        1.4538775137
 C         -3.7149693432        1.6385786483        1.0029504003
 C         -4.7228708442        2.1394324069       -0.0314809120
 H         -5.6745178359        2.3440579483        0.4648024274
 H         -4.3394958572        3.0853119788       -0.4206321441
 C         -4.9964258346        1.1937714491       -1.2051236171
 H         -5.4917356314        1.7830035302       -1.9799803629
 H         -5.7061839488        0.4236187174       -0.8976388594
 C         -3.7650508470        0.5118121743       -1.8166218786
 H         -2.8621565174        1.0919504107       -1.6171591912
 H         -3.8923590701        0.4868060663       -2.9012414340
 C         -3.5468469019       -0.9414876494       -1.3518494304
 H         -4.5071849860       -1.3914940064       -1.0842556394
 H         -3.1315159503       -1.5167118632       -2.1847155770
 H         -3.7584015442        2.3000004476        1.8703835775
 H         -2.7074331685        1.7288049827        0.5891410843
 H         -4.8592884546       -0.2152624397        1.0333228717
 H         -3.9953573107        0.1230196099        2.5413941737
 O         -1.8822869763       -0.8411430575        2.0284808755
 C         -0.6548249920       -1.4479615508        1.8001016196
 O          0.0879422677       -1.4960240102        2.8016472734
 O         -1.0940231904       -2.2661915649       -1.6986923458
 C          1.0077257831       -2.4817763889        0.2640824270
 C          1.7354601444       -1.6368535587       -0.7587442532
 C          2.7827431353       -2.1344992330       -1.5264609047
 C          3.4319568942       -1.3187111511       -2.4367395962
 C          3.0602289911        0.0036436721       -2.6031455504
 C          2.0134754319        0.5103341744       -1.8415316030
 C          1.3765529608       -0.3072577410       -0.9221779415
 H          0.5543081733        0.0947823274       -0.3533353004
 N          1.5781832679        1.8314143757       -1.9927890359
 S          0.7370569486        2.6330752440       -0.8014494183
 O         -0.5980940632        2.1062460781       -0.6678706735
 O          0.8262124670        4.0245115434       -1.1912763510
 C          1.6686710037        2.3716736224        0.6960964677
 C          1.0872253635        1.7380470099        1.7741328927
 C          1.8441748463        1.5108596661        2.9122030661
 C          3.1647864458        1.9291037810        2.9541253378
 C          3.7326092633        2.5799968575        1.8687539804
 C          2.9811806007        2.8014278499        0.7267217800
 H          3.3886157270        3.3074308691       -0.1331989010
 H          4.7587835884        2.9080831642        1.9084427871
 H          3.7527883667        1.7455079314        3.8394209915
 H          1.3974546050        0.9880355501        3.7430321647
 H          0.0583451241        1.4176778316        1.7109011401
 H          2.1537318981        2.4342441640       -2.5592580760
 H          3.5616273500        0.6332706258       -3.3215994294
 H          4.2405528284       -1.7192637895       -3.0289543650
 H          3.0834924340       -3.1637313321       -1.4159858619
 H          1.5506930182       -2.3978909885        1.2180412847
 C          0.9450945776       -3.9447500534       -0.1306968245
 C          2.0053226378       -4.9032721261        0.3196675415
 C          0.6359184415       -4.9630559578        0.9243053022
 H         -0.0099059773       -5.7900357241        0.6703485352
 H          0.5058167474       -4.6020508266        1.9344986174
 H          2.3012470131       -5.6956138779       -0.3514179481
 H          2.8066717680       -4.5164212389        0.9311578418
 H          0.5041693150       -4.0901265658       -1.1099228732
