  62
        -98.94046277
 C         -2.5106707466       -1.2603045626        0.1177257456
 C         -3.4053762661       -0.6570929330        1.0412450281
 C         -4.4025030064        0.2604996121        0.4815866065
 C         -4.4422871132        0.4682807112       -0.8466164467
 C         -5.4197064160        1.3472236186       -1.5786919956
 C         -5.0287447691        2.8311681951       -1.6061869549
 C         -5.1856569753        3.5699798604       -0.2765029193
 H         -5.0892880910        4.6363955852       -0.4898689895
 H         -6.1909966811        3.4055117623        0.1123455528
 C         -4.1495456967        3.1841973836        0.7886046806
 H         -3.3084852886        2.6749253618        0.3120634863
 H         -3.7522483327        4.0887270765        1.2544654777
 C         -4.6920365930        2.2984940924        1.9103628693
 H         -5.4437698201        2.8487131022        2.4804825185
 H         -3.8667706413        2.0567783455        2.5849225185
 C         -5.3126665247        0.9800339212        1.4303820907
 H         -5.4626557054        0.3348818818        2.2993893454
 H         -6.2787104992        1.1670596331        0.9618204285
 H         -3.9949009127        2.9139143464       -1.9496591884
 H         -5.6648181151        3.3211679473       -2.3470188100
 H         -5.4562680639        0.9814711924       -2.6072032946
 H         -6.4104321209        1.2392086028       -1.1362248012
 O         -3.5793515118       -0.1377519475       -1.7027508432
 C         -2.5818781732       -0.9948504185       -1.2501680269
 O         -1.8559545662       -1.4314249968       -2.1644536787
 O         -3.3768248584       -0.8887329664        2.2788683783
 C         -1.4854350348       -2.2184348479        0.6978503805
 C         -0.1650872629       -1.5404750962        0.9606356684
 C          0.4808762816       -1.6821120356        2.1830282727
 C          1.7094148241       -1.0838151907        2.4038610323
 C          2.3168259642       -0.3331683838        1.4133530038
 C          1.6783905885       -0.1830328231        0.1891240528
 C          0.4469243690       -0.7830711834       -0.0287040878
 H         -0.0377475942       -0.6758137519       -0.9885034710
 N          2.2886668821        0.5817766157       -0.8249151278
 S          3.8190549149        0.0823304046       -1.3168052646
 O          3.9715048368        0.5808719508       -2.6659470434
 O          3.9904744991       -1.3405159433       -1.1322877963
 C          4.9229148220        0.9743149050       -0.2416879550
 C          5.8293299915        0.2861113412        0.5408219792
 C          6.6837548599        1.0035917728        1.3637600137
 C          6.6170046827        2.3882394573        1.3888379933
 C          5.7026381191        3.0643387654        0.5944824942
 C          4.8467930729        2.3534277838       -0.2315090610
 H          4.1248302639        2.8387941104       -0.8669021628
 H          5.6537203482        4.1411220587        0.6165243036
 H          7.2817772064        2.9441907712        2.0309438503
 H          7.3956137518        0.4800753034        1.9814475888
 H          5.8400916333       -0.7910002129        0.4921784613
 H          1.6952346592        0.7007394375       -1.6345147737
 H          3.2734660993        0.1347733150        1.5787742915
 H          2.1997342413       -1.2026482277        3.3578191108
 H          0.0095007222       -2.2598795939        2.9645517503
 H         -1.9044367500       -2.5108492747        1.6737841365
 C         -1.3311297645       -3.4909646296       -0.1261339899
 C         -0.1062259795       -3.8329096389       -0.9155178454
 C         -0.4184679764       -4.5860688158        0.3407924927
 H         -0.7540195566       -5.6090154726        0.2638073248
 H          0.1976222255       -4.3845281118        1.2040483625
 H         -0.2472527552       -4.3218947497       -1.8676645800
 H          0.7265692056       -3.1461227358       -0.9073801855
 H         -2.2758284595       -3.8016786683       -0.5618419372
