  62
        -98.94094013
 C          2.3052042159        0.8555558884       -0.1686887625
 C          3.5976899160        1.2179089631        0.2809857704
 C          4.7103878374        0.4490915080       -0.2866707982
 C          4.4615298039       -0.5141239619       -1.1927117911
 C          5.4917317621       -1.3703973775       -1.8783100261
 C          5.9291506085       -2.5943547966       -1.0617088351
 C          6.8199262802       -2.2884971841        0.1431135278
 H          7.2259885909       -3.2405141135        0.4906282964
 H          7.6611841781       -1.6725642376       -0.1759393745
 C          6.0935512670       -1.6063391519        1.3108050778
 H          6.3697988808       -2.0956776150        2.2475261332
 H          5.0147209697       -1.7312881764        1.1908766287
 C          6.4052258067       -0.1179522077        1.4677994856
 H          5.8111117216        0.2712250623        2.2985551245
 H          7.4602398991        0.0112261073        1.7188823453
 C          6.0916777322        0.7264909901        0.2256577531
 H          6.1355413128        1.7812206881        0.5075814924
 H          6.8311452159        0.5406251505       -0.5527116491
 H          6.4798243749       -3.2549085957       -1.7354182567
 H          5.0360200542       -3.1286932014       -0.7293247335
 H          5.0350915657       -1.7210979217       -2.8063191756
 H          6.3644196221       -0.7658591583       -2.1267693900
 O          3.2045399221       -0.8171807516       -1.6159637355
 C          2.0959147825       -0.1597268660       -1.1013646537
 O          1.0061435516       -0.5633843987       -1.5527669012
 H         -1.6134950056        1.2128550997        0.0006864430
 C         -1.1890589578        0.5497337254        0.7340965707
 C          0.1596545462        0.6128828226        1.0454542599
 C          0.6661231680       -0.2599849791        2.0057773576
 C         -0.1524764495       -1.1882653924        2.6174322328
 C         -1.4925385697       -1.2685377082        2.2810297566
 C         -2.0126655425       -0.3923382459        1.3364428384
 N         -3.3862223147       -0.4254459931        1.0256730598
 S         -3.9145431286       -0.2911354371       -0.5724750327
 O         -3.4384430341       -1.4093006027       -1.3577895211
 O         -3.6119948483        1.0255496919       -1.0703301673
 C         -5.6728503962       -0.4362418656       -0.3070450263
 C         -6.3226315387       -1.6154787251       -0.6165548335
 C         -7.6855646689       -1.7118586626       -0.3816704186
 C         -8.3706471403       -0.6342719463        0.1585680385
 C         -7.7044943811        0.5435660359        0.4640505075
 C         -6.3427004362        0.6466746880        0.2303451658
 H         -5.7847872803        1.5433558052        0.4435402084
 H         -8.2410484420        1.3800592089        0.8819513206
 H         -9.4309660063       -0.7117356846        0.3402741368
 H         -8.2063613525       -2.6250403694       -0.6208962776
 H         -5.7499291243       -2.4241611296       -1.0416310954
 H         -3.8436416456       -1.2223303758        1.4507409520
 H         -2.1305748317       -2.0032629270        2.7489836321
 H          0.2556541843       -1.8626141043        3.3554744170
 H          1.7166852491       -0.2044933723        2.2581292010
 C          1.1011502287        1.5919727664        0.3893797791
 H          1.5017039735        2.2604014524        1.1665156730
 C          0.4500698378        2.4346413912       -0.6862535609
 C         -0.3105400823        3.6718326756       -0.3169177625
 C          1.0186927226        3.7849495999       -0.9992167311
 H          1.0467262719        4.1053660013       -2.0299065792
 H          1.8677009396        4.1108811698       -0.4161545458
 H         -1.2019579899        3.9102473084       -0.8775140617
 H         -0.3657505138        3.9283189677        0.7302362771
 H          0.0839703526        1.8412163116       -1.5179870549
 O          3.8093053638        2.1356250050        1.1180469572
