  62
        -98.93780313
 C         -1.2368031254       -1.0221823000        0.2440383915
 C         -1.7144293512        0.1142759823        0.9394926206
 C         -2.8099590188        0.8791519212        0.3151710543
 C         -3.2380463537        0.5099434588       -0.9059020559
 C         -4.3626372676        1.1003496515       -1.7134128825
 C         -5.7481788471        0.6795512262       -1.1936170986
 C         -5.9020172206        0.6970158762        0.3253730767
 H         -5.1388356142        0.0557305847        0.7701577957
 H         -6.8741219258        0.2584302499        0.5654168620
 C         -5.8418443409        2.0790916673        0.9712068569
 H         -6.0265386549        1.9473032984        2.0403639311
 H         -6.6473709549        2.6973407192        0.5686057805
 C         -4.5238087780        2.8374932584        0.8057313623
 H         -4.5512340620        3.6919476187        1.4885542750
 H         -4.4326446188        3.2479451802       -0.1964673214
 C         -3.2742805412        2.0383347458        1.1637825131
 H         -3.3807002271        1.6440227142        2.1809190597
 H         -2.4224492120        2.7290776353        1.2078697190
 H         -5.9378626431       -0.3413989496       -1.5337645141
 H         -6.4983707708        1.3303446375       -1.6456077512
 H         -4.2453104425        0.7284944441       -2.7338056732
 H         -4.2682073692        2.1820501001       -1.7449638612
 O         -2.6894161022       -0.5398598193       -1.5795403815
 C         -1.6747886896       -1.3176994236       -1.0469467791
 O         -1.2672031068       -2.2106034773       -1.8132071398
 O         -1.2461119203        0.4812878511        2.0518863659
 C         -0.1133924684       -1.8182077398        0.8816273091
 C          1.0557443186       -1.9139353856       -0.0665014129
 C          1.7322732539       -3.0892676431       -0.3634871020
 C          2.8163638895       -3.0704916201       -1.2248667471
 C          3.2641384816       -1.8877363473       -1.7841069829
 C          2.5909046268       -0.7059044569       -1.4945735186
 C          1.4960594308       -0.7323427665       -0.6485044915
 H          0.9577987167        0.1838560773       -0.4592524655
 N          3.0047013734        0.5220797841       -2.0324153708
 S          2.8464322560        1.9109704965       -1.1167925108
 O          1.4752472023        2.3579048352       -1.1061936596
 O          3.8013169961        2.8307883802       -1.6984212017
 C          3.3803937134        1.4437058679        0.5208231008
 C          2.4827062324        1.3713821391        1.5659740804
 C          2.9342201099        0.9528211636        2.8082063403
 C          4.2672480366        0.6175678994        2.9842032544
 C          5.1599618941        0.7054780875        1.9264689758
 C          4.7139736540        1.1192745389        0.6825572258
 H          5.3789029806        1.2097324069       -0.1609292326
 H          6.1975849822        0.4494020127        2.0670788222
 H          4.6111022466        0.2883834138        3.9519771268
 H          2.2335374283        0.8859339487        3.6253911776
 H          1.4481832933        1.6325008099        1.4041472121
 H          3.8732316928        0.4971271900       -2.5453964152
 H          4.1138868452       -1.8768506078       -2.4491218086
 H          3.3265321656       -3.9926357838       -1.4581952258
 H          1.4003132908       -4.0228447577        0.0596318983
 H          0.2092425258       -1.1867175148        1.7278730335
 C         -0.5315709730       -3.1527986825        1.4798555812
 C         -1.9609148583       -3.4321856934        1.8342849625
 C         -1.3095039609       -4.1750191422        0.7084543195
 H         -1.0704735619       -5.2181338160        0.8564221939
 H         -1.5901271328       -3.9279568830       -0.3028715270
 H         -2.1692451791       -3.9610498496        2.7523705260
 H         -2.6941886318       -2.6774812367        1.5879483941
 H          0.2120828066       -3.5343843421        2.1727282041
