  62
        -98.93984180
 C         -2.3388547521       -1.0313669558        0.2059464713
 C         -1.9354701236       -0.0884700395       -0.7676501822
 C         -2.4289323488        1.2889456858       -0.5878461692
 C         -3.2036614216        1.5839603361        0.4727713185
 C         -3.8685030177        2.8807479517        0.8853698841
 C         -3.4121724321        4.2145844046        0.2983016031
 C         -1.9902132402        4.6310021384        0.6725313904
 H         -1.7536721410        5.5506459527        0.1330696643
 H         -1.9625110122        4.8565625975        1.7416781243
 C         -0.9028976538        3.5966013059        0.3893955861
 H         -1.0602145699        2.7182945811        1.0194416291
 H          0.0566169167        4.0311869284        0.6826206600
 C         -0.7866545013        3.1497353276       -1.0668399558
 H          0.1221624295        2.5485515776       -1.1526198588
 H         -0.6753006790        4.0238271810       -1.7105691308
 C         -1.9522867595        2.2948592352       -1.5946021107
 H         -2.7776456949        2.9125048759       -1.9402328392
 H         -1.5869114329        1.7212359168       -2.4510367968
 H         -4.0923868040        4.9743234582        0.6930492532
 H         -3.5342983265        4.2136398562       -0.7807026504
 H         -3.7828321068        2.9223603087        1.9759284426
 H         -4.9344806751        2.7539965044        0.6656363336
 O         -3.5649204947        0.6359071637        1.3880421144
 C         -3.1427028655       -0.6784313637        1.2866316404
 O         -3.5353373642       -1.4190371394        2.2118538276
 O         -1.1979357881       -0.3778994493       -1.7445735983
 C         -1.8776966872       -2.4718818770        0.0975088527
 C         -0.3709275691       -2.5492772433        0.0282339483
 C          0.2998092421       -3.4424433682       -0.7974910684
 C          1.6831382879       -3.4898236582       -0.8016286647
 C          2.4269780612       -2.6539505995        0.0103188798
 C          1.7676283010       -1.7501917102        0.8348871709
 C          0.3805763408       -1.7126647356        0.8437518311
 H         -0.1312134650       -1.0160071796        1.4969551273
 N          2.4950856094       -0.9036395721        1.6873834596
 S          3.8821146775       -0.1107994602        1.2026345414
 O          4.8955320002       -1.0820071281        0.8751192624
 O          4.1852337025        0.7889579559        2.2918960041
 C          3.4567118938        0.8322515443       -0.2495756109
 C          3.1031759493        2.1577640910       -0.0912663992
 C          2.7678353580        2.9017578695       -1.2106495974
 C          2.7779794456        2.3060652663       -2.4629852142
 C          3.1290067789        0.9728973371       -2.6044907436
 C          3.4767004255        0.2263396197       -1.4898432524
 H          3.7682542012       -0.8074934427       -1.5680801340
 H          3.1332331744        0.5108775785       -3.5784878582
 H          2.5093358079        2.8844881566       -3.3327415671
 H          2.4984528453        3.9403943318       -1.1040374838
 H          3.1131981756        2.5825438190        0.8997432285
 H          1.9185368273       -0.2922736781        2.2455509538
 H          3.5041025036       -2.6922611748        0.0250923267
 H          2.1910144234       -4.1919150937       -1.4454196151
 H         -0.2603115279       -4.1034879947       -1.4380095724
 H         -2.2004186376       -2.9668339785        1.0259532266
 C         -2.5652436935       -3.1436037345       -1.0745439667
 C         -2.9034340906       -4.6024503464       -1.0244280565
 C         -3.9909922096       -3.5770283795       -0.9199674146
 H         -4.6638233765       -3.4481700623       -1.7544859033
 H         -4.4548011942       -3.4155810751        0.0426608926
 H         -2.8335544358       -5.1803763882       -1.9337287780
 H         -2.6371130788       -5.1486552239       -0.1320386113
 H         -2.2728466554       -2.7158124341       -2.0266554250
