  62
        -98.93789597
 C         -2.6094129055       -0.1329975323       -0.0412208953
 C         -2.4267883585       -1.2266409888       -0.9157780933
 C         -1.8341825588       -2.4454082869       -0.3400862140
 C         -1.4746674305       -2.4525688564        0.9573431396
 C         -0.8458731712       -3.5323230606        1.8132041157
 C         -0.2687858098       -4.7952300603        1.1798015375
 C          0.9981346020       -4.5715033535        0.3543254419
 H          1.8122804400       -4.3147868217        1.0369067585
 H          1.2561667314       -5.5125738739       -0.1369288580
 C          0.9203583695       -3.4667921668       -0.6970972393
 H          0.7656131685       -2.5009642084       -0.2090112722
 H          1.8918794078       -3.4196908450       -1.1986674162
 C         -0.1411083716       -3.6678297677       -1.7770988035
 H          0.0060244860       -4.6363571193       -2.2598733622
 H          0.0065957590       -2.8911059610       -2.5328531526
 C         -1.6001388313       -3.5763602913       -1.3009664664
 H         -1.9363839090       -4.5179418561       -0.8740551288
 H         -2.2261887947       -3.3689285418       -2.1740817106
 H         -1.0278120425       -5.3011577991        0.5903498120
 H         -0.0093081988       -5.4652350096        2.0041154867
 H         -0.0605624487       -3.0271844599        2.3855281993
 H         -1.6158540243       -3.8245661056        2.5360272869
 O         -1.6955892226       -1.3790525078        1.7712624687
 C         -2.2168148802       -0.1908471109        1.2955893799
 O         -2.2965461388        0.7149759519        2.1482763561
 O         -2.7343102202       -1.1843774182       -2.1396189567
 C         -3.0812780156        1.1967504357       -0.6067260317
 C         -1.9412440528        2.1750826819       -0.4558688759
 C         -2.0563339379        3.4366385238        0.1114127044
 C         -0.9311081314        4.2163839142        0.3258077147
 C          0.3297084197        3.7532247088       -0.0052944255
 C          0.4473909860        2.5080896914       -0.6040477994
 C         -0.6789732029        1.7441507967       -0.8456222721
 H         -0.5691172769        0.7642620268       -1.2950455970
 N          1.7443798738        1.9764375874       -0.8765391032
 S          2.2301029626        1.0467271406        0.4607604411
 O          1.4583992864       -0.1760981104        0.5306700886
 O          2.2020644517        1.8993929736        1.6215833221
 C          3.9193999799        0.6764923688        0.0249996429
 C          4.8512455208        1.6934134403        0.1057285514
 C          6.1611634095        1.4314342591       -0.2616161937
 C          6.5147897110        0.1645452386       -0.7025789272
 C          5.5680889082       -0.8455241418       -0.7783277218
 C          4.2552230026       -0.5891222718       -0.4138078539
 H          3.4853734532       -1.3437161111       -0.4510032208
 H          5.8452374193       -1.8299826330       -1.1195627199
 H          7.5351803568       -0.0375085648       -0.9875712445
 H          6.9005354043        2.2137521587       -0.2031520064
 H          4.5294383177        2.6579366209        0.4612697686
 H          1.7070958095        1.3402830336       -1.6651151059
 H          1.2168904859        4.3263965987        0.2073408934
 H         -1.0375293068        5.1881085400        0.7836605180
 H         -3.0254749744        3.7999545853        0.4127903918
 H         -3.2557089419        1.0183172936       -1.6781523660
 C         -4.3716808303        1.6550043791        0.0342612169
 C         -5.2976075837        2.5680362897       -0.7115088223
 C         -5.6717917801        1.1332037725       -0.4974402571
 H         -6.4586877313        0.9021462408        0.2044958986
 H         -5.6275903590        0.4599259302       -1.3409714185
 H         -5.8325090277        3.3240032861       -0.1569815445
 H         -5.0054943801        2.8721325329       -1.7051744717
 H         -4.2809918748        1.7770721250        1.1076219981
