  62
        -98.93529860
 C         -0.6915471097       -1.7052055405        0.2091246800
 C         -1.6326010296       -1.1461503408        1.1062040903
 C         -2.8202013499       -0.4920368509        0.5211631607
 C         -2.9002590503       -0.3816611008       -0.8179757492
 C         -4.0055659006        0.2102420491       -1.6548514989
 C         -4.0494458709        1.7428410391       -1.6195157787
 C         -3.9685952006        2.3451370390       -0.2209941487
 H         -3.0236319804        2.0494485991        0.2357220910
 H         -3.9598693308        3.4328245090       -0.3262203086
 C         -5.1202665802        1.9793843487        0.7125386616
 H         -6.0689569704        2.2313595586        0.2341136619
 H         -5.0237511901        2.6039483386        1.6041985416
 C         -5.1701034198        0.5182528586        1.1692097915
 H         -5.6370408499       -0.1195992214        0.4228263116
 H         -5.8091625796        0.4744546285        2.0557603517
 C         -3.8181939896       -0.0634440912        1.5700894111
 H         -3.2981783795        0.6395131889        2.2310488510
 H         -3.9890822693       -0.9554189712        2.1848125110
 H         -3.2037369411        2.1182009592       -2.1998996890
 H         -4.9690304911        2.0688638189       -2.1089605284
 H         -3.8163095009       -0.1085542708       -2.6823987690
 H         -4.9628054105       -0.2049964511       -1.3521449186
 O         -1.9039255704       -0.8251103006       -1.6373087996
 C         -0.7987335702       -1.5149344404       -1.1679551900
 O         -0.0142943804       -1.8830161102       -2.0614728302
 O         -1.5042443492       -1.2065627208        2.3595374103
 C          0.4583169406       -2.5003766604        0.7960607896
 C          1.7650067303       -2.1605201201        0.1244307892
 C          2.5697240103       -3.1020762299       -0.5035594711
 C          3.7736217600       -2.7264163197       -1.0726572614
 C          4.2039515898       -1.4150860996       -1.0172943514
 C          3.4022214299       -0.4613268798       -0.3979491211
 C          2.1929980201       -0.8380411700        0.1626426892
 H          1.5733167301       -0.0958405302        0.6468836395
 N          3.8065041897        0.8777268003       -0.3637689611
 S          3.2346050898        1.9818108601        0.7366095891
 O          4.1686718496        3.0850757703        0.6481735189
 O          3.0659406103        1.4094872300        2.0521197691
 C          1.6713879695        2.5217206799        0.0806873096
 C          1.5219618191        2.6419305100       -1.2862867603
 C          0.3363090789        3.1548466798       -1.7872493499
 C         -0.6684801610        3.5494509096       -0.9180563296
 C         -0.5055368705        3.4176058295        0.4521588904
 C          0.6742697697        2.8967747796        0.9586353300
 H          0.8387166100        2.7694353596        2.0172790399
 H         -1.2888355004        3.7227440493        1.1276781206
 H         -1.5842760111        3.9633667294       -1.3090653293
 H          0.2026761785        3.2496737199       -2.8530127099
 H          2.3239574089        2.3316605501       -1.9352707206
 H          4.7426386595        1.0712230905       -0.6837843114
 H          5.1457251697       -1.1232358294       -1.4561621217
 H          4.3873131700       -3.4673537695       -1.5622279516
 H          2.2480221104       -4.1281327600       -0.5661566511
 H          0.5257090608       -2.1566242905        1.8427418696
 C          0.1886209808       -3.9987498904        0.8479609996
 C         -1.2079037091       -4.5388259207        0.9117466799
 C         -0.3819534094       -4.7436890804       -0.3206165803
 H         -0.0110781493       -5.7365679304       -0.5290870905
 H         -0.6234958397       -4.1727144604       -1.2037331502
 H         -1.3982022287       -5.3867325308        1.5526127199
 H         -2.0239541092       -3.8322249008        0.8705046502
 H          0.9284161511       -4.5221660404        1.4460950993
