  62
        -98.94556199
 C          1.9633864393        1.5140159106       -0.1005584886
 C          1.6789878501        0.2630625705       -0.7005905888
 C          2.8043034304       -0.6816546491       -0.7617793283
 C          4.0110099101       -0.3022598187       -0.3033353677
 C          5.2276543804       -1.1802137982       -0.2631293071
 C          5.3330303999       -1.9178371882        1.0790067730
 C          4.0386640600       -2.6113313187        1.5041837723
 H          4.2397480797       -3.1244716787        2.4471904424
 H          3.2777974796       -1.8540091990        1.7068598319
 C          3.4925430909       -3.6162951889        0.4805872420
 H          3.1920147009       -4.5235023590        1.0090606718
 H          4.2809145113       -3.8964320286       -0.2190660176
 C          2.2696498611       -3.1294656093       -0.2995653286
 H          1.5139312006       -2.7573743396        0.3965384210
 H          1.8432729617       -3.9892520894       -0.8226294689
 C          2.5324033612       -2.0391613592       -1.3458380885
 H          3.3462095417       -2.3473466888       -2.0052468881
 H          1.6238851815       -1.9259065395       -1.9441547389
 H          6.1361338402       -2.6536361279        1.0071634534
 H          5.6040730493       -1.1943052482        1.8515130031
 H          5.1809096910       -1.8964210182       -1.0810081171
 H          6.1105392002       -0.5518690379       -0.3925735266
 O          4.2523525793        0.9237710914        0.2291898625
 C          3.2326238289        1.8512883410        0.3671772820
 O          3.5759242183        2.9204442911        0.9118180722
 O          0.5505530404       -0.0486496399       -1.1597350194
 C          0.8550030889        2.5410291702        0.0515573508
 C         -0.3045989813        1.9064061597        0.7786049802
 C         -0.0700986417        1.3099498398        2.0150877603
 C         -1.0871261418        0.6732382194        2.6992968098
 C         -2.3627025515        0.6139555289        2.1647898691
 C         -2.6078491711        1.2099059689        0.9361209590
 C         -1.5860446110        1.8602130093        0.2555359196
 H         -1.7965093007        2.3154932192       -0.6993535605
 N         -3.9004979008        1.1481733684        0.3803880183
 S         -4.5988373502       -0.3672944618        0.2247718079
 O         -5.6559159297       -0.1931578122       -0.7464140626
 O         -5.0064501307       -0.8380370420        1.5249031277
 C         -3.3176968095       -1.4154926913       -0.4356430914
 C         -2.6287419496       -2.2689724811        0.4007454289
 C         -1.6121863290       -3.0463550907       -0.1293605606
 C         -1.3017417684       -2.9535021706       -1.4762117605
 C         -2.0001758383       -2.0879076908       -2.3021485308
 C         -3.0164913588       -1.3076876212       -1.7783498813
 H         -3.5884158687       -0.6296738414       -2.3917844516
 H         -1.7501503378       -2.0137958407       -3.3483110307
 H         -0.5085978279       -3.5589379903       -1.8855258201
 H         -1.0630045591       -3.7194056505        0.5097932296
 H         -2.9031852601       -2.3152315112        1.4419954187
 H         -3.9829660905        1.6519660884       -0.4914203717
 H         -3.1669604016        0.1114121686        2.6771115287
 H         -0.8866554022        0.2144365094        3.6559538499
 H          0.9296333881        1.3450407601        2.4275680208
 H          1.2628750482        3.3442631203        0.6816007311
 C          0.4935071493        3.1187228001       -1.3008054893
 C         -0.1170975411        4.4838342899       -1.3992226696
 C          1.2987816492        4.2620205804       -1.8374550389
 H          1.5226115597        4.2847803205       -2.8934847888
 H          2.0962580187        4.6413931307       -1.2152165485
 H         -0.8638944908        4.6640371996       -2.1580224900
 H         -0.2842568618        5.0244290498       -0.4798612897
 H          0.1742872000        2.3604232200       -2.0069278895
