  62
        -98.94626539
 C         -1.8056813611       -1.0591711690       -0.2927640945
 C         -3.1614905883       -1.3015756184        0.0339615711
 C         -4.1138925285       -0.2685407045       -0.3881203264
 C         -3.6733634503        0.8120455510       -1.0582904837
 C         -4.5251243577        1.9380189163       -1.5788316625
 C         -4.8395993105        3.0185038303       -0.5349138625
 C         -5.8445698218        2.6093989212        0.5425883930
 H         -6.1360649287        3.5193814654        1.0708555362
 H         -6.7406614781        2.2076233881        0.0686130835
 C         -5.3022105870        1.5989772608        1.5630892306
 H         -4.2110275630        1.5818546763        1.5134894326
 H         -5.5717174863        1.9195799515        2.5719333362
 C         -5.8278607697        0.1744858861        1.3855736274
 H         -6.9053429160        0.1562545203        1.5635933731
 H         -5.3526178992       -0.4628441868        2.1357263092
 C         -5.5512924364       -0.4331461479        0.0040423609
 H         -5.7619821122       -1.5043635617        0.0520434620
 H         -6.2040360888        0.0180578380       -0.7429369501
 H         -3.9054363075        3.3300413987       -0.0621256515
 H         -5.2447664621        3.8800878958       -1.0705347758
 H         -3.9642223604        2.3998316446       -2.3941932931
 H         -5.4558645325        1.5373470382       -1.9814443258
 O         -2.3623938163        1.0003399318       -1.3658725609
 C         -1.3960767372        0.0826353139       -0.9797378150
 O         -0.2353081252        0.3944401284       -1.3052168665
 O         -3.5544415937       -2.3282925624        0.6497967415
 C         -0.7576438911       -2.0796730043        0.1119872926
 C          0.2937454991       -1.4291979826        0.9755339134
 C         -0.1108312665       -0.7387986963        2.1164748325
 C          0.8133303197       -0.1242411899        2.9377884359
 C          2.1633666427       -0.1773738122        2.6347402221
 C          2.5786462514       -0.8679274288        1.5038433757
 C          1.6473230812       -1.4982772686        0.6879083497
 H          2.0019640659       -2.0211359268       -0.1837964536
 N          3.9460976999       -0.9641033989        1.1820819793
 S          4.4885942975       -0.4364538300       -0.3120282280
 O          3.8396713880       -1.1769958764       -1.3613543912
 O          5.9287191798       -0.5585101734       -0.2399003813
 C          4.0460018421        1.2908955009       -0.3675721286
 C          5.0146138173        2.2256815050       -0.0536199344
 C          4.6730725987        3.5676220226       -0.0316263653
 C          3.3700165424        3.9506937955       -0.3130584897
 C          2.4102639232        2.9993543225       -0.6208065565
 C          2.7443075722        1.6534889991       -0.6496366266
 H          2.0043487859        0.9063769604       -0.8907132259
 H          1.3935746370        3.2845614632       -0.8409699845
 H          3.1003410207        4.9950369900       -0.2940714895
 H          5.4196068855        4.3084493849        0.2056210354
 H          6.0148843117        1.8813154678        0.1543696426
 H          4.5571026700       -0.6011923404        1.9009269601
 H          2.8884953483        0.3072719178        3.2709077330
 H          0.4823321486        0.4063882203        3.8177331903
 H         -1.1663930841       -0.6919986645        2.3482399740
 H         -1.2933047884       -2.8218809147        0.7227359628
 C         -0.1971127462       -2.7747610275       -1.1105661118
 C          0.3502749317       -4.1653333738       -0.9999877545
 C         -0.9515940554       -3.9256865217       -1.7023181231
 H         -0.9853336451       -4.0223493541       -2.7771976222
 H         -1.8636222592       -4.2266899405       -1.2076179742
 H          1.2155416710       -4.4244094963       -1.5917328402
 H          0.3236163652       -4.6370225595       -0.0292527397
 H          0.2891852856       -2.0914541621       -1.7989035533
