  62
        -98.93123880
 C         -2.5496035667       -1.1388058153        0.4740536186
 C         -3.4062822540       -0.7669743144       -0.5903932674
 C         -4.5998576206        0.0198042738       -0.2203022452
 C         -4.8081424050        0.3540245828        1.0635855316
 C         -5.9678805987        1.1067514888        1.6668742139
 C         -6.4901134944        2.3352498787        0.9100441995
 C         -5.4193735622        3.1338063167        0.1525868850
 H         -4.4236779859        2.8005346509        0.4503231578
 H         -5.5047620205        4.1876947227        0.4239707560
 C         -5.5593404912        3.0274647928       -1.3678131925
 H         -5.0383375546        3.8704481670       -1.8280737225
 H         -6.6162073627        3.1145811498       -1.6293327935
 C         -4.9935366727        1.7516698829       -1.9900451870
 H         -3.9020750689        1.7628569927       -1.9284964932
 H         -5.2541434211        1.7506448388       -3.0511574802
 C         -5.4823869091        0.4360154411       -1.3622462162
 H         -5.3900872137       -0.3501317675       -2.1165355753
 H         -6.5244561253        0.5063287633       -1.0603475782
 H         -6.9700255420        2.9790426496        1.6491830648
 H         -7.2667286175        2.0297686472        0.2102702513
 H         -5.6237779949        1.4074831856        2.6594517233
 H         -6.7905528523        0.4004383687        1.8128980057
 O         -3.9440318734       -0.0080754444        2.0551039378
 C         -2.8107396727       -0.7524266153        1.7902657692
 O         -2.1226434211       -1.0132930514        2.7988892566
 O         -3.2136398434       -1.0737972377       -1.7934722475
 C         -1.2957623950       -1.9758978882        0.2812449343
 C         -0.1121035640       -1.1074391349       -0.0583974759
 C         -0.1475205788       -0.2181024191       -1.1280481011
 C          0.9559510369        0.5596954299       -1.4280296233
 C          2.1110237605        0.4721443262       -0.6702215074
 C          2.1559688979       -0.4087424604        0.4014214773
 C          1.0472682822       -1.1912840424        0.6983978703
 H          1.0823387175       -1.8688850545        1.5414603077
 N          3.3230869298       -0.4919120218        1.1801922911
 S          4.7809131573       -0.7626454822        0.3894436651
 O          4.5787206471       -1.4797212778       -0.8479061093
 O          5.6307676993       -1.3982836253        1.3722185978
 C          5.4011145813        0.8720662331        0.0560405306
 C          5.6844215011        1.2495346702       -1.2418880266
 C          6.1748505321        2.5247346352       -1.4767153212
 C          6.3731278994        3.3942725346       -0.4151790835
 C          6.0865376958        2.9983776608        0.8829772212
 C          5.5970489336        1.7248291035        1.1246591813
 H          5.3668340549        1.3772031083        2.1179716552
 H          6.2426033109        3.6772174866        1.7058721155
 H          6.7540374602        4.3862209763       -0.6003403645
 H          6.3993724629        2.8339153199       -2.4849229673
 H          5.5106592732        0.5411692574       -2.0363067824
 H          3.2346302548       -1.0986801356        1.9826320014
 H          2.9722707558        1.0777951041       -0.9005838493
 H          0.9165768605        1.2436819884       -2.2622831382
 H         -1.0458140513       -0.1520945364       -1.7230276232
 H         -1.1014933827       -2.4239228362        1.2689841281
 C         -1.4938226470       -3.1260174940       -0.6979721564
 C         -0.8247348444       -3.2166609879       -2.0329634417
 C         -0.3877465770       -4.1158838845       -0.9184202897
 H         -0.6320408968       -5.1662575568       -0.9671926985
 H          0.5666392686       -3.9061732199       -0.4572226497
 H         -1.3950867835       -3.6351508519       -2.8479711913
 H         -0.1605361697       -2.4213743190       -2.3317057972
 H         -2.4989032797       -3.5315721311       -0.6409548820
