  62
        -98.94351472
 C          1.8521187495        0.8168223797        0.7642726901
 C          2.1513411796        0.4354641400       -0.5660125999
 C          3.5758722397        0.4565818200       -0.9291773397
 C          4.4836732096        0.8531517798       -0.0185417195
 C          5.9685482196        0.8645294498       -0.2362593993
 C          6.6015024795       -0.4624748004        0.2055300905
 C          5.8919608795       -1.6987712102       -0.3471520699
 H          6.4422054194       -2.5741370503        0.0048903500
 H          4.8889107394       -1.7565552603        0.0819922600
 C          5.7894704997       -1.7402458498       -1.8782418499
 H          6.0540991297       -2.7433479698       -2.2193259901
 H          6.5102950098       -1.0489214498       -2.3162603096
 C          4.3951886698       -1.4354046397       -2.4293725000
 H          4.3831358899       -1.7038732994       -3.4890604601
 H          3.6558438897       -2.0626190697       -1.9246619303
 C          3.9398515699        0.0254631803       -2.3219876498
 H          4.7042995499        0.6815318004       -2.7429117395
 H          3.0273900099        0.1329571505       -2.9155176599
 H          6.5754148493       -0.5120783306        1.2966668705
 H          7.6465129095       -0.4690500403       -0.1095492693
 H          6.1758197898        1.0457135100       -1.2889632992
 H          6.3971198895        1.6757533596        0.3545875810
 O          4.1524651394        1.2440976595        1.2392238306
 C          2.8350268693        1.2196461295        1.6671045304
 O          2.6707690392        1.5714121692        2.8534473904
 H         -2.0986913505        0.1012396600        0.3617768394
 C         -1.4871988106       -0.7513899301        0.6044313093
 C         -0.1906813607       -0.5727490702        1.0609101095
 C          0.5624571492       -1.6990186104        1.3828783394
 C          0.0392265192       -2.9675163603        1.2278857390
 C         -1.2546335807       -3.1412830401        0.7687193888
 C         -2.0215802106       -2.0250257300        0.4607333889
 N         -3.3298827606       -2.1677072999       -0.0207450113
 S         -4.5235801206       -1.0860886899        0.4222001188
 O         -4.3468452008       -0.6184292502        1.7772430589
 O         -5.7627544506       -1.7845689998        0.1521309685
 C         -4.3700104504        0.2691428604       -0.7223673609
 C         -4.6772925604        1.5427505403       -0.2859863606
 C         -4.6052805102        2.5962910205       -1.1840762404
 C         -4.2289521100        2.3586352207       -2.4968692504
 C         -3.9255543600        1.0733260008       -2.9195548906
 C         -3.9996592202        0.0150732906       -2.0279895009
 H         -3.7645870702       -0.9936240993       -2.3238513211
 H         -3.6288097899        0.8926246111       -3.9402234506
 H         -4.1696708999        3.1799964209       -3.1935399702
 H         -4.8405553802        3.5966060004       -0.8563266802
 H         -4.9534512905        1.6844758700        0.7469466994
 H         -3.6727968106       -3.1159969798       -0.0635158316
 H         -1.6659589208       -4.1320461101        0.6485541185
 H          0.6404447291       -3.8303999104        1.4729737589
 H          1.5710578692       -1.5653107505        1.7509196995
 C          0.4132140394        0.7985821497        1.2445858899
 H          0.4470452492        1.0107591094        2.3239561300
 C         -0.3718677405        1.8978376699        0.5580271201
 C         -1.5190922005        2.5630350198        1.2552860500
 C         -0.2313890705        3.3032501498        1.0574254904
 H         -0.2034736703        4.1067207799        0.3370818606
 H          0.4081541494        3.4614437695        1.9138871205
 H         -2.3742886104        2.8587392899        0.6664837500
 H         -1.7667300707        2.2231522796        2.2499782799
 H         -0.4403629503        1.7502204301       -0.5138503600
 O          1.2780016097        0.0921634502       -1.4039614801
