  62
        -98.94135074
 C         -2.6118914300       -1.1533437684        0.3781180944
 C         -2.3822134209       -0.3996751229       -0.8007971955
 C         -3.0804760315        0.8938360118       -0.8812927106
 C         -3.8691826510        1.2882711699        0.1336205625
 C         -4.5866228967        2.6043333943        0.2052704386
 C         -3.7266927115        3.6648162981        0.9071352407
 C         -2.2955647336        3.7532703154        0.3752841143
 H         -1.7925701212        4.5540615850        0.9222744165
 H         -1.7633946786        2.8274479198        0.6095304434
 C         -2.1930167991        4.0226704963       -1.1324141899
 H         -3.1393305726        4.4192847115       -1.5027855541
 H         -1.4310966770        4.7870973627       -1.2987820151
 C         -1.7903450488        2.8070108169       -1.9698266702
 H         -0.8855358133        2.3546825334       -1.5521546907
 H         -1.5402164402        3.1568822263       -2.9752032342
 C         -2.8594872599        1.7166414741       -2.1188578456
 H         -3.7960405370        2.1647970903       -2.4574486753
 H         -2.5125061813        1.0184414882       -2.8862018872
 H         -4.2155555051        4.6343963940        0.7975945041
 H         -3.6810679242        3.4252373629        1.9721030659
 H         -4.8361279359        2.9317861400       -0.8019071771
 H         -5.5083354522        2.4639505687        0.7723963336
 O         -4.0584225525        0.5433599547        1.2530126859
 C         -3.4141649100       -0.6729905286        1.4154078401
 O         -3.6282217915       -1.2201598433        2.5162231772
 H         -0.2612829284       -0.7259184538        1.7249913215
 C          0.2618161094       -1.3215387939        0.9846125626
 C         -0.4369848197       -2.3102657550        0.3017705218
 C          0.2388062485       -3.0596340308       -0.6506243401
 C          1.5745893442       -2.8107931458       -0.9157119840
 C          2.2624744795       -1.8190657416       -0.2410410328
 C          1.5955185683       -1.0640615657        0.7151294484
 N          2.2876840891       -0.0493647347        1.4083151579
 S          2.9532794042        1.1808895902        0.4714565683
 O          3.0643525954        2.3142146047        1.3653945548
 O          2.2023471495        1.3938988730       -0.7436984155
 C          4.5847408441        0.5771709020        0.0949358827
 C          5.4229340873        0.2747686094        1.1503670919
 C          6.6959488955       -0.1999421820        0.8783900235
 C          7.1072503177       -0.3607263375       -0.4366002807
 C          6.2549533474       -0.0486259938       -1.4847819055
 C          4.9793527793        0.4256233810       -1.2196492229
 H          4.2785277412        0.6737583923       -2.0009008096
 H          6.5765069405       -0.1741157462       -2.5062104143
 H          8.0980770763       -0.7318049660       -0.6459080740
 H          7.3616508901       -0.4436830694        1.6905611153
 H          5.0636126739        0.4177329581        2.1557336654
 H          1.7449205396        0.3575460821        2.1574524988
 H          3.3002342054       -1.6186334472       -0.4523353006
 H          2.0861432862       -3.3942935635       -1.6659211424
 H         -0.2880823272       -3.8164871468       -1.2078453276
 C         -1.9012535468       -2.4742314327        0.6286373207
 H         -1.9852883658       -2.6367523952        1.7163164720
 C         -2.5449278087       -3.6807737101       -0.0361644334
 C         -4.0188678520       -3.7128548447       -0.3073412335
 C         -3.0484105374       -3.6546822222       -1.4466556375
 H         -2.9182717925       -4.5405633102       -2.0511271923
 H         -2.9492529902       -2.7325034959       -1.9961437800
 H         -4.5532710429       -4.6339395574       -0.1294286185
 H         -4.5889887471       -2.8251888110       -0.0733778373
 H         -2.1011590451       -4.6109897475        0.3053321863
 O         -1.6387610234       -0.7735057683       -1.7429760923
