  62
        -98.94124052
 C          2.4853755292        1.3591090212       -0.0345074894
 C          3.2491211691        0.7110475509        0.9717796104
 C          4.1152589892       -0.3900452889        0.5336386002
 C          4.1423599193       -0.7225274886       -0.7693656299
 C          4.9364004095       -1.8549059184       -1.3516772701
 C          4.1161196395       -3.1520913884       -1.3815857005
 C          3.4346259994       -3.4842870988       -0.0538426507
 H          2.6690792394       -2.7322921189        0.1545747595
 H          2.9150974595       -4.4362927188       -0.1845167110
 C          4.3903382994       -3.5824033491        1.1436604494
 H          4.1322723994       -4.4707454492        1.7238398391
 H          5.4140712694       -3.7114914389        0.7905217594
 C          4.3304095692       -2.3914346493        2.1020072997
 H          3.2911312192       -2.1989633095        2.3812056297
 H          4.8698764692       -2.6615385595        3.0136626597
 C          4.9401891992       -1.0843338691        1.5802416601
 H          5.9508131792       -1.2713956990        1.2115640001
 H          5.0030481391       -0.3881586394        2.4216372503
 H          3.3423099696       -3.0566681782       -2.1471967906
 H          4.7773713596       -3.9720723883       -1.6676948807
 H          5.2165771295       -1.5896128881       -2.3725151600
 H          5.8398717894       -1.9979717185       -0.7620993701
 O          3.4024825994       -0.0806360483       -1.7067182798
 C          2.5483022593        0.9634690715       -1.3707375695
 O          1.9292087293        1.4281250417       -2.3472532895
 O          3.2135915690        1.0500201906        2.1848476805
 C          1.5952262891        2.5032154610        0.4223812708
 C          0.1924981491        2.0156940408        0.6803817705
 C         -0.4186794510        2.2006470305        1.9144766406
 C         -1.6979036110        1.7238686103        2.1448315303
 C         -2.3923194509        1.0565477106        1.1517966801
 C         -1.7872094208        0.8601703309       -0.0829055199
 C         -0.5062465708        1.3395483511       -0.3111264097
 H         -0.0387804207        1.1827676413       -1.2725842797
 N         -2.4841721107        0.1820487212       -1.1020712502
 S         -3.0427183106       -1.3616876390       -0.7369597106
 O         -2.2314481207       -1.9875098492        0.2825832093
 O         -3.1290119005       -2.0507986086       -2.0059740708
 C         -4.6879459507       -1.0720889092       -0.1210160907
 C         -5.5812856207       -0.4143433791       -0.9439575906
 C         -6.8662902907       -0.1778562293       -0.4826139506
 C         -7.2344271308       -0.6021198896        0.7856729693
 C         -6.3268961008       -1.2643877598        1.5981555291
 C         -5.0394835508       -1.5039727596        1.1427870892
 H         -4.2975380808       -2.0089461597        1.7407367491
 H         -6.6149457509       -1.5933241301        2.5836746990
 H         -8.2347788908       -0.4154264398        1.1430268992
 H         -7.5747342707        0.3368777909       -1.1114721005
 H         -5.2546377406       -0.1047537588       -1.9227003905
 H         -1.9799316406        0.1688138714       -1.9780480501
 H         -3.3878166109        0.6817589305        1.3252889599
 H         -2.1593168911        1.8726110300        3.1090552503
 H          0.1229891589        2.7058758403        2.7006659207
 H          2.0202592290        2.8100857807        1.3910215009
 C          1.6541254891        3.7123528612       -0.5020184989
 C          0.4938279691        4.2050342814       -1.3091736888
 C          0.9532345690        4.9809755911       -0.1139049686
 H          1.4603908389        5.9215031712       -0.2658654383
 H          0.3305048089        4.9497539108        0.7675038914
 H          0.7028346892        4.5915919617       -2.2950838487
 H         -0.4421716209        3.6735904113       -1.2420547791
 H          2.6317849191        3.8189384414       -0.9614419688
