  62
        -98.94173280
 C          2.2578300422        0.7425079042        0.0668895674
 C          3.4353148477        1.0621429378        0.7940788574
 C          4.3804246649       -0.0369649202        1.0268202128
 C          4.0644196383       -1.2731431550        0.6014372878
 C          4.9516344766       -2.4768893201        0.7273926010
 C          5.8468519985       -2.6392194913       -0.5092073170
 C          6.5777774319       -1.3595736856       -0.9159605801
 H          7.2005600324       -1.6019460178       -1.7797927543
 H          5.8445094012       -0.6204110213       -1.2468551149
 C          7.4506533594       -0.7481656926        0.1889624730
 H          8.4133898938       -0.4655271553       -0.2419797128
 H          7.6474090287       -1.4936129993        0.9602688050
 C          6.8664030695        0.5086659946        0.8365884124
 H          6.5832525762        1.2231093166        0.0593731664
 H          7.6495518004        0.9756465511        1.4396029575
 C          5.6562200582        0.2862594957        1.7524416842
 H          5.8879239799       -0.4881897344        2.4864271174
 H          5.4672411648        1.2216449862        2.2872378532
 H          5.2237122371       -2.9592037150       -1.3477314969
 H          6.5743227983       -3.4274693891       -0.3070973263
 H          4.3191432777       -3.3607964967        0.8263790380
 H          5.5637749360       -2.3780514489        1.6218417467
 O          2.9036233573       -1.5563078621       -0.0394513777
 C          1.9746036160       -0.5640396810       -0.3362602086
 O          0.9767921921       -0.9892909746       -0.9483347978
 O          3.6836699235        2.2177644694        1.2293259933
 C          1.2807931446        1.8775514670       -0.1912412593
 C         -0.1030977586        1.4795386231        0.2510118160
 C         -0.4298750943        1.5299399318        1.6028082596
 C         -1.6776566885        1.1292346278        2.0415894361
 C         -2.6206854725        0.6592188861        1.1440381563
 C         -2.2955733369        0.5834552240       -0.2031786140
 C         -1.0507785072        1.0127145070       -0.6450645259
 H         -0.8035514813        0.9396548488       -1.6926589122
 N         -3.2388124519        0.0981059012       -1.1232907315
 S         -4.1580993619       -1.2466788574       -0.7227878994
 O         -3.4753141190       -2.1281317343        0.1952206075
 O         -4.5557157833       -1.8190632042       -1.9910667807
 C         -5.5955048008       -0.5427855209        0.0623353310
 C         -6.2831754350        0.4509844487       -0.6066010207
 C         -7.4075520532        1.0027737092       -0.0139791976
 C         -7.8258892045        0.5522471847        1.2293117002
 C         -7.1277447205       -0.4490808149        1.8863905261
 C         -6.0014502719       -1.0044889935        1.2990056365
 H         -5.4246732327       -1.7817469980        1.7751230665
 H         -7.4544073857       -0.7992590733        2.8524419789
 H         -8.7012363640        0.9835626064        1.6887383825
 H         -7.9533535121        1.7811103619       -0.5224818556
 H         -5.9274437722        0.7704965963       -1.5717199535
 H         -2.8753379870        0.0132518917       -2.0617499095
 H         -3.5899529351        0.3302899242        1.4811123290
 H         -1.9195182971        1.1783222379        3.0924676937
 H          0.3121773305        1.8791143210        2.3076091917
 H          1.6295158930        2.6867181223        0.4705848241
 C          1.3130278746        2.4356833546       -1.6065467477
 C          2.6162020194        2.5909923931       -2.3303269987
 C          1.6021949678        1.6016391188       -2.8169576798
 H          1.0665431786        1.8258301537       -3.7283597622
 H          1.7956855975        0.5497729021       -2.6760482361
 H          2.7845564918        3.4865892197       -2.9089195994
 H          3.5018341713        2.2129079059       -1.8404803727
 H          0.5912043796        3.2368174984       -1.7347547237
