  62
        -98.94396076
 C         -1.9858270497       -1.1560077297       -0.1206429108
 C         -2.4549549796       -0.1145466397       -0.9565405408
 C         -3.8939505196        0.1757484804       -0.8681137708
 C         -4.6654402797       -0.5518741696       -0.0400604508
 C         -6.1335663597       -0.3326820795        0.1804458392
 C         -6.3817566796        0.6307709205        1.3493187692
 C         -5.5594287895        1.9172505605        1.2733242593
 H         -5.8408088195        2.5343572305        2.1293792293
 H         -4.5008847895        1.6725024704        1.3883596892
 C         -5.7543412295        2.7194695805       -0.0208647007
 H         -5.8702310294        3.7746595305        0.2355557493
 H         -6.6728666195        2.4046251406       -0.5175690207
 C         -4.5878267295        2.6271132604       -1.0065361207
 H         -3.6512889195        2.8507129904       -0.4888378107
 H         -4.7288333794        3.3948896005       -1.7720896007
 C         -4.4294069496        1.2839161804       -1.7303598708
 H         -5.3799710496        0.9960270605       -2.1842130508
 H         -3.6949372396        1.4229434604       -2.5291819808
 H         -7.4448026196        0.8771154006        1.3741403492
 H         -6.1299207596        0.1180212305        2.2805054692
 H         -6.5778408496        0.0627061306       -0.7308476708
 H         -6.5939033897       -1.2950247195        0.4105824192
 O         -4.1795918397       -1.5532105696        0.7369872392
 C         -2.8315728097       -1.8688719797        0.7301854492
 O         -2.5128886498       -2.7877971897        1.5109868991
 O         -1.7164803496        0.5372016503       -1.7405643108
 C         -0.5134509697       -1.5300278398       -0.1172328508
 C          0.3061512903       -0.3377677799        0.3097191792
 C          0.1073333404        0.1857660301        1.5848477392
 C          0.8377031205        1.2713442600        2.0287614092
 C          1.7851070005        1.8613545400        1.2091355892
 C          1.9867317104        1.3496759000       -0.0639368708
 C          1.2572210504        0.2532942801       -0.5055140108
 H          1.4281435503       -0.1278440799       -1.4998346408
 N          2.9757924705        1.9302256500       -0.8895793008
 S          4.5435527005        1.7501090899       -0.3208928708
 O          4.7481704605        2.6379218698        0.7946090092
 O          5.4037661105        1.9503712798       -1.4649202808
 C          4.6003217704        0.0525273198        0.2240718992
 C          4.7439048203       -0.9371800601       -0.7279721409
 C          4.6834973402       -2.2629934302       -0.3314278309
 C          4.4700372702       -2.5740128902        1.0028833391
 C          4.3276575703       -1.5687032402        1.9465906491
 C          4.3901644704       -0.2406737502        1.5561300792
 H          4.2834712004        0.5700438998        2.2578451192
 H          4.1610711403       -1.8144311402        2.9830380091
 H          4.4141000801       -3.6069421202        1.3090513991
 H          4.7947223802       -3.0482154301       -1.0619472209
 H          4.9126320203       -0.6547262401       -1.7548413009
 H          2.9241929105        1.6109849500       -1.8469996808
 H          2.3748775105        2.7016469300        1.5383517292
 H          0.6699926905        1.6632383100        3.0206320892
 H         -0.6333413096       -0.2754353099        2.2244339592
 H         -0.4024682198       -2.3066374699        0.6523407691
 C         -0.1030046598       -2.1097057998       -1.4543433409
 C          1.1337324202       -2.9512360299       -1.5493476609
 C         -0.2178581099       -3.5871648198       -1.6711002809
 H         -0.5369270999       -3.9421619398       -2.6396291809
 H         -0.5828475799       -4.1829572298       -0.8473189009
 H          1.7432722102       -2.8741784799       -2.4369841809
 H          1.6949515102       -3.1145754600       -0.6417855809
 H         -0.3499608697       -1.4626995098       -2.2881661308
