  62
        -98.94564509
 C         -1.0947970568       -1.4574977130        0.7472301927
 C         -1.9928518001       -1.4480830414       -0.3468210569
 C         -3.0008948301       -0.3781871048       -0.3364544487
 C         -2.9946656462        0.5266312771        0.6592663590
 C         -3.9397862539        1.6878802284        0.7639791838
 C         -3.3778289785        2.9394234269        0.0760029109
 C         -2.8381402356        2.6877292820       -1.3313115851
 H         -2.4928058524        3.6467327451       -1.7225303639
 H         -1.9658831267        2.0327629177       -1.2674003746
 C         -3.8593183511        2.0832528683       -2.3048832326
 H         -4.8700201496        2.2357414261       -1.9241478471
 H         -3.7893950345        2.6105720351       -3.2586138630
 C         -3.6509236743        0.5975634192       -2.6023108610
 H         -4.2790187185        0.3301091071       -3.4563875296
 H         -2.6119556751        0.4220000055       -2.8930794353
 C         -3.9992173532       -0.3641814129       -1.4596235502
 H         -4.0017945651       -1.3785156408       -1.8693802014
 H         -5.0004760033       -0.1430309615       -1.0841305413
 H         -4.1666384257        3.6927392770        0.0358241003
 H         -2.5612046950        3.3276449400        0.6859198763
 H         -4.8921832506        1.4103572601        0.3158275919
 H         -4.0978490421        1.9059758725        1.8214685030
 O         -2.0947396171        0.5034097648        1.6762290100
 C         -1.1263102906       -0.4844809227        1.7463619700
 O         -0.3650002696       -0.3907674123        2.7302224422
 O         -1.9648174763       -2.2901852849       -1.2817710881
 C         -0.0014747210       -2.5095565720        0.8248105218
 C          0.9425693887       -2.3049319187       -0.3356457997
 C          1.2366564161       -3.2771228689       -1.2813233593
 C          2.0921077996       -2.9906387012       -2.3317417071
 C          2.6845621640       -1.7468549496       -2.4468783190
 C          2.4052163140       -0.7695214221       -1.4974998169
 C          1.5332146888       -1.0528121320       -0.4604053537
 H          1.3113621931       -0.2909047084        0.2735612664
 N          2.9798179199        0.5088745244       -1.5768702381
 S          3.5256924795        1.2396331707       -0.1709546411
 O          4.5100246106        2.1994253024       -0.6270358427
 O          3.9936062845        0.2612802461        0.7829467483
 C          2.1301098284        2.1354327604        0.4731616344
 C          1.7716868834        1.9785519105        1.7965810053
 C          0.7317600636        2.7397554900        2.3054187198
 C          0.0770165023        3.6446013693        1.4857211971
 C          0.4419048096        3.7841877682        0.1546056129
 C          1.4796760603        3.0248307523       -0.3597348729
 H          1.7982264722        3.1112496920       -1.3852797105
 H         -0.0771942027        4.4843077271       -0.4801972833
 H         -0.7198729230        4.2479857514        1.8924073792
 H          0.4346083310        2.6107988380        3.3336259459
 H          2.2977974021        1.2579241966        2.4026687794
 H          3.6343270757        0.6322024621       -2.3361520553
 H          3.3563699929       -1.5287102059       -3.2632941345
 H          2.3056905044       -3.7507310324       -3.0680069054
 H          0.7892748815       -4.2541371870       -1.2041072302
 H          0.5572374206       -2.3016765056        1.7492633683
 C         -0.5853962040       -3.9027923505        0.9099647069
 C          0.2200106416       -5.0131776870        1.5126850218
 C         -0.9562471934       -4.4528245717        2.2529750627
 H         -1.8491751180       -5.0541223626        2.3352568538
 H         -0.7695145635       -3.8288444283        3.1151425777
 H          0.1342980440       -6.0026235517        1.0896646874
 H          1.2084991882       -4.7729236664        1.8749031657
 H         -1.2385473574       -4.1362646671        0.0777727793
