  62
        -98.94386316
 C         -1.8481893167       -1.1138423521       -0.4962931243
 C         -1.9176528518        0.0244519156        0.3436118947
 C         -3.2333908675        0.2941469502        0.9382066816
 C         -4.2647148928       -0.5334659624        0.6905407463
 C         -5.6567964206       -0.4051557675        1.2471796274
 C         -6.5587721340        0.5550510748        0.4596888613
 C         -6.2334076713        2.0396956765        0.6287733826
 H         -6.1871304697        2.2814332476        1.6911685318
 H         -7.0683489892        2.6005027613        0.2038364113
 C         -4.9367381046        2.4860827847       -0.0609052244
 H         -5.1172683214        3.4139855662       -0.6082519344
 H         -4.6381041333        1.7342786970       -0.7950501373
 C         -3.7674047999        2.7411022408        0.8902435810
 H         -4.0040439673        3.5831624544        1.5444622872
 H         -2.8943022415        3.0136453479        0.2923968110
 C         -3.3888263584        1.5367213796        1.7621308916
 H         -4.1358693803        1.3871283861        2.5414513486
 H         -2.4261319682        1.7433962069        2.2364246508
 H         -7.5843438772        0.3888543309        0.7975764423
 H         -6.5113332633        0.2896026113       -0.5990245437
 H         -5.6075065898       -0.0878712242        2.2893264184
 H         -6.0999739847       -1.4027420496        1.2086470244
 O         -4.1494255290       -1.6309304153       -0.1046276137
 C         -2.9503970508       -1.9356688303       -0.7296108802
 O         -2.9900541274       -2.9542333290       -1.4504807618
 O         -0.9389258612        0.7730915179        0.5900285570
 C         -0.5478557028       -1.4694777556       -1.1900411226
 C          0.5670327211       -1.7093725375       -0.1997888495
 C          0.2939748155       -2.2386768956        1.0574649712
 C          1.3054085917       -2.4472443732        1.9767948505
 C          2.6186641068       -2.1489794877        1.6583417066
 C          2.9068737099       -1.6473961154        0.3978125820
 C          1.8883188803       -1.4304940641       -0.5216809319
 H          2.1322494972       -1.0333223904       -1.4953574020
 N          4.2502731569       -1.3394640637        0.0777234607
 S          4.8463128678        0.0633103349        0.7795919280
 O          6.2108855234        0.1883576260        0.3200978128
 O          4.6510951989       -0.0147853947        2.2036463607
 C          3.8466153549        1.3570382741        0.0682596630
 C          2.5547179446        1.5246329221        0.5248164198
 C          1.7351214994        2.4476999377       -0.1055769240
 C          2.2227069573        3.1876658611       -1.1717208324
 C          3.5268077246        3.0151517145       -1.6126244471
 C          4.3454147448        2.0832902827       -0.9959523219
 H          5.3614387380        1.9083454582       -1.3117210620
 H          3.9021830826        3.5960697869       -2.4399084482
 H          1.5799596687        3.9016702198       -1.6629828265
 H          0.7149614511        2.5491831661        0.2289898076
 H          2.1951484881        0.9379058666        1.3544397906
 H          4.4211264161       -1.2986582860       -0.9183074451
 H          3.4173067748       -2.2828168850        2.3692801446
 H          1.0685213050       -2.8456129055        2.9519964262
 H         -0.7293066181       -2.4757330635        1.3152028297
 H         -0.7373234863       -2.4133885012       -1.7231475053
 C         -0.1989189540       -0.3953755471       -2.2039817109
 C          0.4425720523       -0.7517394414       -3.5106472650
 C         -0.9906394992       -0.3159171166       -3.4731971006
 H         -1.2475618932        0.6574433359       -3.8628618054
 H         -1.7566664635       -1.0630592863       -3.6248632465
 H          1.1706102113       -0.0731508557       -3.9298309884
 H          0.6447777764       -1.7946421685       -3.7047326475
 H          0.0870421564        0.5383463164       -1.7331183371
