  62
        -98.94080582
 C         -1.5079185608       -1.5105887573       -0.0642701773
 C         -2.4818586642       -0.9398513731        0.7858132228
 C         -3.1089678394        0.3042445634        0.3119999004
 C         -2.7293589702        0.8267498936       -0.8670948496
 C         -3.2576542781        2.0673624962       -1.5410391344
 C         -3.4105373493        3.3280691696       -0.6743128793
 C         -2.4411923412        3.4345035995        0.5127045996
 H         -1.6433805749        2.6960892747        0.4160643860
 H         -1.9761122410        4.4222159449        0.5028759091
 C         -3.1337772800        3.2611831465        1.8672598643
 H         -4.0793300027        3.8075967328        1.8506504072
 H         -2.5100498725        3.7143903169        2.6418968992
 C         -3.4003086295        1.8164487633        2.2888885553
 H         -2.4584335711        1.3263332614        2.5513148867
 H         -4.0105473740        1.8366607673        3.1951761535
 C         -4.1038089050        0.9403962543        1.2397321726
 H         -4.5983777591        0.1195953621        1.7664545803
 H         -4.8553125176        1.5074015971        0.6954481015
 H         -4.4312361283        3.3877696824       -0.2984070443
 H         -3.2711590192        4.1861510596       -1.3337622880
 H         -2.5617031848        2.2639741531       -2.3586708692
 H         -4.2246771755        1.8251473232       -1.9904900149
 O         -1.7872127401        0.2410194935       -1.6565765645
 C         -1.1455414157       -0.9272567219       -1.2785420882
 O         -0.2958236774       -1.3352487062       -2.0893890523
 H          0.3354930302       -0.6507276413        1.5377265279
 C          1.0934066551       -1.2882901775        1.0982471917
 C          0.7033254560       -2.4605511449        0.4609977798
 C          1.6881128703       -3.2704943996       -0.0872269700
 C          3.0210196410       -2.8998035334       -0.0181085728
 C          3.4017206480       -1.7224582211        0.5987581626
 C          2.4245727458       -0.9117948892        1.1628808081
 N          2.7952847594        0.2984097687        1.7896918985
 S          3.4957656001        1.4631471813        0.8083160806
 O          4.7818402766        0.9850345047        0.3694427733
 O          3.4984534623        2.6736070057        1.5986191058
 C          2.4026088572        1.6472403756       -0.5879612796
 C          2.5359625705        0.7939738446       -1.6648337160
 C          1.6646661630        0.9241717397       -2.7337786580
 C          0.6840795662        1.9029804300       -2.7089217680
 C          0.5618417827        2.7516654070       -1.6198965980
 C          1.4234286113        2.6194426352       -0.5431544189
 H          1.3647366272        3.2618400561        0.3214623228
 H         -0.2030980151        3.5116041718       -1.6039281696
 H          0.0071647882        1.9964658922       -3.5435247678
 H          1.7435086768        0.2539609278       -3.5737439346
 H          3.3142764448        0.0485957203       -1.6529152676
 H          2.0352517595        0.7215806227        2.3042538854
 H          4.4320827110       -1.4079982593        0.6383971477
 H          3.7746567674       -3.5359541922       -0.4569939346
 H          1.4129345940       -4.1877478366       -0.5811222472
 C         -0.7731270125       -2.7619980132        0.3807883812
 H         -1.1403549988       -2.9770757872        1.3953884335
 C         -1.1081998776       -3.9329385613       -0.5177718136
 C         -1.0577371330       -5.3328196883        0.0153812207
 C         -2.3789444158       -4.6891908720       -0.2766010319
 H         -2.9450208307       -5.0323768118       -1.1294819332
 H         -2.9922238276       -4.3755505373        0.5556298837
 H         -0.7186874143       -6.1223355680       -0.6382155513
 H         -0.7764018116       -5.4650008814        1.0492303526
 H         -0.8142610867       -3.7639102093       -1.5474505533
 O         -2.8106636855       -1.4432432860        1.8946966618
