  62
        -98.94052551
 C         -2.3348039716        0.2666801327       -0.2430489570
 C         -3.5282024068        0.7516099943       -0.8294957173
 C         -4.7182081026       -0.0915491071       -0.6560201003
 C         -4.6062457111       -1.2568629276        0.0077081346
 C         -5.7456968840       -2.1885413524        0.3011542210
 C         -6.3912221196       -1.8659306641        1.6560513294
 C         -6.7248173261       -0.3859293417        1.8438769929
 H         -7.2026620791       -0.2815686079        2.8204076291
 H         -5.7953486514        0.1871418650        1.8786581890
 C         -7.6410651888        0.2005860002        0.7608410942
 H         -8.4121938885        0.8041776068        1.2440843489
 H         -8.1470270508       -0.6049672495        0.2276043064
 C         -6.9322642611        1.1078429351       -0.2465698482
 H         -7.6954352978        1.6359520518       -0.8243587735
 H         -6.3468696972        1.8608065481        0.2872030797
 C         -6.0093128298        0.4009083191       -1.2472761780
 H         -6.5482278360       -0.4157444561       -1.7317607833
 H         -5.7286261181        1.1301786594       -2.0128437317
 H         -5.7002786680       -2.1640027396        2.4480103846
 H         -7.3004195363       -2.4615629011        1.7558436695
 H         -6.4853772767       -2.1113080817       -0.4932491655
 H         -5.3573410570       -3.2079786264        0.3270953033
 O         -3.4366810415       -1.7018842814        0.5344992067
 C         -2.2744333237       -0.9511744849        0.4341491288
 O         -1.2804473721       -1.4708626282        0.9755521728
 H          1.5193147551        0.5402227047        0.4588775017
 C          1.2697409730        0.1160493596       -0.4988463556
 C          0.0120689894        0.2996017736       -1.0491040888
 C         -0.2624382924       -0.2693817061       -2.2909778581
 C          0.6955218507       -1.0077894175       -2.9569000225
 C          1.9523159353       -1.1862237585       -2.4051516744
 C          2.2360151445       -0.6250255343       -1.1663068019
 N          3.4915968995       -0.8163283209       -0.5678711001
 S          4.1469071434        0.4191689512        0.3750869319
 O          3.5786136696        0.3612115172        1.6980815223
 O          4.0312046881        1.6844071320       -0.3152450351
 C          5.8521406594       -0.1005822635        0.4337820357
 C          6.2034870570       -1.1098801780        1.3105452223
 C          7.5202224825       -1.5403171248        1.3434897605
 C          8.4587100934       -0.9579807061        0.5041830707
 C          8.0917743134        0.0550550209       -0.3687501658
 C          6.7759555258        0.4894013209       -0.4079184320
 H          6.4462932827        1.2787009156       -1.0641704243
 H          8.8243630940        0.5078511237       -1.0172388589
 H          9.4830902830       -1.2942618683        0.5330662774
 H          7.8095214746       -2.3258302264        2.0228639956
 H          5.4418557665       -1.5255360820        1.9497200315
 H          4.1755999484       -1.2047794737       -1.2026446074
 H          2.7022946638       -1.7630064926       -2.9248092849
 H          0.4661356872       -1.4436301562       -3.9177856462
 H         -1.2432871796       -0.1250435513       -2.7239450733
 C         -1.0695867668        1.0963863033       -0.3632302339
 H         -1.3345403043        1.9426259278       -1.0152418860
 C         -0.6596079814        1.6380859032        0.9894988975
 C          0.1693162089        2.8831087636        1.0805029775
 C         -1.2728927050        2.9113324419        1.4865023036
 H         -1.5126342462        2.9932745493        2.5360397934
 H         -1.9769220298        3.4091988197        0.8357055473
 H          0.9280703724        2.9399269896        1.8470352720
 H          0.4501016915        3.3642605858        0.1555059296
 H         -0.4778709643        0.8534695980        1.7165821531
 O         -3.5931108635        1.8345181940       -1.4718330078
