  62
        -98.94349270
 C          1.9445130475        0.7806209371        0.5431979867
 C          2.1688250620        0.1487681940       -0.7032972597
 C          2.4904008264       -1.2817035270       -0.6417272541
 C          2.4925860938       -1.9167598048        0.5441479728
 C          2.7644556963       -3.3804758417        0.7642204306
 C          4.2558161612       -3.7337149665        0.8509963982
 C          5.0161559548       -3.6768670991       -0.4745684179
 H          5.9847117559       -4.1523480905       -0.3080298630
 H          4.4856803838       -4.2689601317       -1.2207860021
 C          5.2485641103       -2.2574473790       -1.0107609166
 H          5.0925781844       -1.5344604929       -0.2067745834
 H          6.2863418315       -2.1565109065       -1.3360226521
 C          4.3628313679       -1.8749984985       -2.1965834092
 H          4.6014530866       -2.5101052224       -3.0524179829
 H          4.5851692539       -0.8407977992       -2.4708078124
 C          2.8570708617       -1.9762289661       -1.9184910366
 H          2.3212829669       -1.4776437926       -2.7299865955
 H          2.5478692878       -3.0207958579       -1.8856537728
 H          4.7302120020       -3.0651912644        1.5731271677
 H          4.3263852251       -4.7508674839        1.2431694936
 H          2.2899057141       -3.6436031663        1.7122317872
 H          2.2944406490       -3.9616645791       -0.0297191892
 O          2.2216947652       -1.2824903439        1.7172923515
 C          1.9548920517        0.0765173655        1.7455739286
 O          1.7471931867        0.5362879217        2.8893255759
 H         -0.5638427445        0.7092826135        0.4370013039
 C         -0.6873957446        1.6159890312       -0.1384853596
 C          0.3474357811        2.5409799377       -0.1906971966
 C          0.1611079129        3.7039524246       -0.9275426845
 C         -1.0303210116        3.9242709291       -1.5969484804
 C         -2.0553737592        2.9986742422       -1.5459669732
 C         -1.8762785194        1.8274671762       -0.8161807620
 N         -2.8802944179        0.8460291205       -0.7893925633
 S         -2.9404227048       -0.2807429067        0.4581902213
 O         -2.9160548890        0.3846458697        1.7427238719
 O         -1.9302502527       -1.2853625520        0.2329222662
 C         -4.5562081659       -0.9740572994        0.1610987000
 C         -4.7018529261       -1.9030536581       -0.8520470997
 C         -5.9608068220       -2.4220900363       -1.1091133248
 C         -7.0473429549       -2.0056962860       -0.3539257350
 C         -6.8855698051       -1.0744561677        0.6607104365
 C         -5.6291677205       -0.5502852188        0.9220857496
 H         -5.4525013300        0.1696779028        1.7049303553
 H         -7.7310054444       -0.7550974544        1.2483866648
 H         -8.0258190023       -2.4118944137       -0.5557386239
 H         -6.0896474386       -3.1481936693       -1.8954439007
 H         -3.8266028138       -2.2016252956       -1.4054208579
 H         -3.7949440641        1.1973232978       -1.0359229403
 H         -2.9818430795        3.1707592352       -2.0717301841
 H         -1.1626726454        4.8323805417       -2.1652526170
 H          0.9493597683        4.4371876899       -0.9776675998
 C          1.6095287783        2.2586474561        0.5903704264
 H          1.4072718069        2.4907695592        1.6476971929
 C          2.7959898326        3.0803260687        0.1268242838
 C          3.0667538775        4.4291096021        0.7205465084
 C          3.9508895680        3.2688504893        1.0625172655
 H          4.9520316279        3.2426092619        0.6593374112
 H          3.8644150138        2.8299657458        2.0464168958
 H          2.3885256720        4.7867607206        1.4807037784
 H          3.4657960342        5.2028366559        0.0820760789
 H          3.0211154675        2.9245167930       -0.9219208675
 O          2.1051725211        0.7459307593       -1.8098332909
