  62
        -98.94627806
 C         -1.5385619677       -1.4716568108       -0.0652513071
 C         -1.5006536318       -0.1056895185        0.3068049341
 C         -2.7887504781        0.4791159559        0.7007106811
 C         -3.8931453301       -0.2884143221        0.7256560994
 C         -5.2734871504        0.1621630021        1.1208979683
 C         -6.0580608367        0.8359748806       -0.0134282331
 C         -5.5826717394        2.2398279180       -0.3905044154
 H         -6.3495254382        2.6740867873       -1.0351977887
 H         -5.5260943978        2.8559128569        0.5073727580
 C         -4.2376431374        2.2763414938       -1.1297401024
 H         -4.3152281689        2.9425250365       -1.9920514908
 H         -4.0077987255        1.2803381422       -1.5152786700
 C         -3.0610551858        2.7629354922       -0.2833368711
 H         -3.2176933746        3.8080893051       -0.0075901419
 H         -2.1552393159        2.7021670251       -0.8910592140
 C         -2.8249044202        1.9482203587        0.9948203634
 H         -1.8501586967        2.2242753423        1.4042600897
 H         -3.5947528514        2.1719342920        1.7327968980
 H         -6.0225952481        0.1902483157       -0.8940211115
 H         -7.1005140129        0.9024671720        0.3068304169
 H         -5.8170359876       -0.7332119203        1.4302341026
 H         -5.2082085175        0.8400755302        1.9724153804
 O         -3.8762847728       -1.6102269148        0.4026874301
 C         -2.7083141891       -2.2277626972       -0.0185527159
 O         -2.8386342819       -3.4354453632       -0.3064949495
 O         -0.4528286074        0.5872392327        0.3113544491
 C         -0.2636802505       -2.1473260093       -0.5374496478
 C          0.8168937293       -1.9626932116        0.4988745150
 C          0.5647524446       -2.3636924963        1.8089332341
 C          1.5123800159       -2.1839370152        2.7970867153
 C          2.7265138325       -1.5865857546        2.5047056181
 C          2.9913461735       -1.1929683760        1.1991662131
 C          2.0462549371       -1.3975161064        0.2027231051
 H          2.2884843328       -1.1013650025       -0.8031507367
 N          4.2154584593       -0.5979437922        0.8678032316
 S          4.3257473390        0.5248116960       -0.3618820023
 O          4.2890535393       -0.1381330450       -1.6422616005
 O          5.5500055148        1.2417763341       -0.0684421123
 C          2.9383844143        1.6331398747       -0.1996454034
 C          2.1515641281        1.8968992636       -1.3005850634
 C          1.1067837532        2.7970210434       -1.1788123369
 C          0.8650590346        3.4120912985        0.0378590893
 C          1.6632944574        3.1351705241        1.1356473288
 C          2.7129119014        2.2401995655        1.0186331250
 H          3.3528467311        2.0105138527        1.8554816828
 H          1.4660750544        3.6094703452        2.0839910162
 H          0.0435761142        4.1050943944        0.1326295756
 H          0.4790651175        3.0071511605       -2.0308483025
 H          2.3676013459        1.3890277622       -2.2277803684
 H          4.8100530987       -0.3660324860        1.6491191085
 H          3.4625878571       -1.4306282969        3.2784174071
 H          1.3015232872       -2.4995044788        3.8079038684
 H         -0.3921022647       -2.8121665254        2.0411552156
 H         -0.4909639187       -3.2199936422       -0.6193650827
 C          0.1187147874       -1.6198644791       -1.9047078906
 C          0.9509772487       -2.4535456265       -2.8303603918
 C         -0.5006365049       -2.2259274385       -3.1262316334
 H         -0.7654439802       -1.5768267767       -3.9474621981
 H         -1.1886291758       -3.0459383316       -2.9789609579
 H          1.6906539729       -1.9617341234       -3.4446292350
 H          1.2507812738       -3.4321637764       -2.4867425249
 H          0.2759463943       -0.5466871189       -1.9054760180
