  62
        -98.94087547
 C          1.8382555293        0.7358600496        0.5535375104
 C          2.3051799991       -0.0059479009       -0.5601361794
 C          3.4343767691       -0.9094931209       -0.2929285792
 C          3.9075362292       -1.0475264704        0.9578091008
 C          5.0385122492       -1.9425789204        1.3860697010
 C          6.4303738092       -1.3263805606        1.1888025806
 C          6.9014282590       -1.2326608712       -0.2631205295
 H          7.9654551991       -0.9891600613       -0.2389492798
 H          6.8019868689       -2.2084527614       -0.7397010191
 C          6.1716151090       -0.1722699914       -1.0995528198
 H          6.9008994590        0.4068949883       -1.6702974101
 H          5.6590554292        0.5267828089       -0.4346469200
 C          5.1610459288       -0.7378452217       -2.0976648995
 H          5.6827240987       -1.3341927420       -2.8494402193
 H          4.6783848089        0.0990897881       -2.6088569397
 C          4.0638444488       -1.6027125614       -1.4631730690
 H          3.2825709787       -1.7706852016       -2.2088013488
 H          4.4720772588       -2.5671465813       -1.1614609087
 H          7.1414531893       -1.9465138805        1.7395038907
 H          6.4392690794       -0.3313084604        1.6398231902
 H          4.9792225790       -2.8903402206        0.8499912414
 H          4.8955314593       -2.1365418000        2.4514528511
 O          3.3727055994       -0.3821143400        2.0166578706
 C          2.3423783395        0.5280048800        1.8397423904
 O          1.9535961897        1.0683971805        2.8952215703
 O          1.8183854890        0.0694353788       -1.7164356293
 C          0.7028412994        1.7372329397        0.4255498502
 C         -0.4285307707        1.1292276295       -0.3671078194
 C         -0.9418139808        1.6790195791       -1.5334542695
 C         -1.9774336210        1.0529038589       -2.2059968892
 C         -2.5268720410       -0.1226026208       -1.7301432986
 C         -2.0292369209       -0.6740380804       -0.5557170885
 C         -0.9971039908       -0.0424476303        0.1195619311
 H         -0.6047312307       -0.4770126300        1.0315494212
 N         -2.5899791610       -1.8616695602       -0.0553906580
 S         -4.2576401410       -1.9935848100       -0.0344866777
 O         -4.5513958009       -2.9046506196        1.0498235327
 O         -4.7310897712       -2.3936961305       -1.3360991975
 C         -4.8504234808       -0.3540055898        0.3452359218
 C         -5.6286260208        0.3279906899       -0.5675794884
 C         -6.0443119907        1.6148150801       -0.2647651988
 C         -5.6727575505        2.1953894105        0.9376811209
 C         -4.8941221204        1.4953946507        1.8469029711
 C         -4.4770314306        0.2083005006        1.5499498715
 H         -3.8748467905       -0.3640307992        2.2376619916
 H         -4.6063355102        1.9478659311        2.7823929909
 H         -5.9918078403        3.1990435406        1.1703282806
 H         -6.6517359707        2.1606378299       -0.9684588489
 H         -5.8922518510       -0.1604267004       -1.4914265882
 H         -2.1845644809       -2.1751014299        0.8136809021
 H         -3.3187003512       -0.6321935610       -2.2547857083
 H         -2.3571215911        1.4833072386       -3.1199640893
 H         -0.5125122108        2.5820936789       -1.9341493299
 H          0.3432167096        1.8877010101        1.4569962002
 C          1.1335591795        3.1047891494       -0.0837654104
 C          2.5279950196        3.6070005994        0.1407411492
 C          2.0656606893        3.2738880989       -1.2442694006
 H          1.8852041793        4.0875943487       -1.9316122008
 H          2.4440305592        2.3811080787       -1.7154817403
 H          2.6632772397        4.6449864095        0.4054834788
 H          3.2290022096        2.9402298295        0.6223078394
 H          0.3404607896        3.8394658195        0.0143929195
