  62
        -98.94576227
 C         -2.5020472079       -0.0482863219       -0.5628883538
 C         -2.4640143595       -0.8333722624        0.6144205748
 C         -1.9896896901       -2.2121070898        0.4482469729
 C         -1.5660954500       -2.6325365591       -0.7568126501
 C         -1.0258418343       -3.9995778886       -1.0785756229
 C          0.4552703888       -4.1756624005       -0.7154225769
 C          0.7454153335       -4.3442813847        0.7769771911
 H          0.0829412155       -5.1043940201        1.1932281395
 H          1.7673816125       -4.7193865251        0.8615291316
 C          0.6305153584       -3.0497466418        1.5935697136
 H          0.6868132859       -2.1887080302        0.9239528528
 H          1.4800104798       -2.9787381375        2.2778039994
 C         -0.6348804599       -2.9375880663        2.4436984971
 H         -0.6155394100       -3.6936485512        3.2328823737
 H         -0.6397009953       -1.9523825791        2.9169478299
 C         -1.9449143249       -3.0909193610        1.6627198642
 H         -2.0919824098       -4.1326503949        1.3773379048
 H         -2.7664090168       -2.7869340713        2.3168220557
 H          1.0097026695       -3.3135217156       -1.0956364345
 H          0.8155140451       -5.0648557606       -1.2387155575
 H         -1.6214171971       -4.7606047555       -0.5727228824
 H         -1.1361573863       -4.1308993927       -2.1572562519
 O         -1.6001922252       -1.8411508205       -1.8628477105
 C         -2.0524519370       -0.5354065090       -1.7899890214
 O         -2.0237738821        0.0797578562       -2.8781241822
 H         -0.3133427429        1.4653004356       -1.0081914587
 C         -0.5266089444        1.9799388286       -0.0810112226
 C         -1.8447036125        2.1122169356        0.3398689058
 C         -2.1015637135        2.8016827978        1.5162728134
 C         -1.0538043724        3.3043710340        2.2703408489
 C          0.2589871237        3.1121513321        1.8825197183
 C          0.5237171615        2.4432972743        0.6911021806
 N          1.8403343149        2.2331647648        0.2497824998
 S          2.1588514330        0.8443979542       -0.6605788985
 O          1.9808479577        1.1677192022       -2.0553734522
 O          1.4097289659       -0.2816813765       -0.1554351217
 C          3.8959588389        0.6254288563       -0.3208931286
 C          4.2944614076       -0.3526983608        0.5699148355
 C          5.6453058209       -0.4978269980        0.8458572497
 C          6.5683723402        0.3356360791        0.2326324533
 C          6.1530105690        1.3130726390       -0.6599542932
 C          4.8044915290        1.4621621191       -0.9419558272
 H          4.4348381336        2.1987574134       -1.6361817518
 H          6.8738043276        1.9572360649       -1.1370176833
 H          7.6186353203        0.2207501235        0.4492084952
 H          5.9705568822       -1.2592819900        1.5361707164
 H          3.5394750885       -0.9798955085        1.0167598360
 H          2.5321347130        2.3865542911        0.9703359369
 H          1.0732942411        3.4735915575        2.4917783314
 H         -1.2640138599        3.8316682028        3.1885652388
 H         -3.1170382105        2.9262819520        1.8541180262
 C         -2.8968868024        1.4193874671       -0.4929023382
 H         -2.8299821237        1.8022128209       -1.5217991048
 C         -4.3107244789        1.6001432738        0.0120724649
 C         -5.0594003124        2.8581947160       -0.3077450794
 C         -5.4422515373        1.5693262552       -0.9691161645
 H         -6.3647615117        1.0912893743       -0.6759945355
 H         -5.1919215803        1.4326683797       -2.0114007560
 H         -5.7236775580        3.2673352280        0.4381095359
 H         -4.5523259443        3.6017153767       -0.9040708066
 H         -4.4735436030        1.1357032055        0.9770106686
 O         -2.8175190967       -0.4154278451        1.7484619903
