  62
        -98.94155581
 C          2.1308887895        0.7768109794        0.2806246306
 C          2.9812305492        0.1683694793        1.2388020007
 C          3.8087503993       -0.9462973007        0.7598027908
 C          3.6661086195       -1.3700900206       -0.5088884292
 C          4.4913665596       -2.4465249706       -1.1507573791
 C          5.7356700898       -1.8569673806       -1.8304636188
 C          6.5300709797       -0.8977967907       -0.9436439385
 H          7.3985811398       -0.5687356208       -1.5181273883
 H          5.9234085797       -0.0113433007       -0.7443366086
 C          6.9967710293       -1.5023396509        0.3880520715
 H          8.0399438993       -1.2243639610        0.5521105018
 H          6.9560772393       -2.5908727009        0.3347666015
 C          6.2114695691       -1.0256001509        1.6112977214
 H          6.1739547291        0.0667855491        1.6199152515
 H          6.7526821188       -1.3408470310        2.5072451115
 C          4.7780027090       -1.5579945308        1.7318433910
 H          4.7801837889       -2.6461680608        1.6411339309
 H          4.4083822088       -1.2963803309        2.7277771510
 H          6.3787925098       -2.6804761306       -2.1459714187
 H          5.4169205401       -1.3135088605       -2.7230469488
 H          4.7863228394       -3.1716125107       -0.3945538991
 H          3.8791973198       -2.9476918505       -1.9025968893
 O          2.7729393898       -0.8247650905       -1.3723460294
 C          1.9895746398        0.2663644596       -1.0109381595
 O          1.2295484000        0.6595161997       -1.9144701496
 O          3.0433246490        0.5410410592        2.4412205908
 C          1.3061659195        1.9686429395        0.7326441405
 C         -0.1352047804        1.7990406796        0.3228607701
 C         -0.8222606202        2.6993095897       -0.4797282500
 C         -2.1444540001        2.4673416698       -0.8167244903
 C         -2.8098327003        1.3449755098       -0.3600807905
 C         -2.1297989506        0.4328623197        0.4367057696
 C         -0.8072682906        0.6704215096        0.7768078199
 H         -0.2754008208       -0.0436719905        1.3947385900
 N         -2.7964004908       -0.7046685003        0.9221422593
 S         -3.7639753106       -1.5968504101       -0.1179600210
 O         -3.8207711008       -2.9173287202        0.4720839989
 O         -3.3022691402       -1.5241528600       -1.4844822009
 C         -5.3626112006       -0.8263511300        0.0346052287
 C         -6.0340151803       -0.4023210799       -1.0953203214
 C         -7.2791288303        0.1903541702       -0.9523178617
 C         -7.8281636405        0.3463715601        0.3110871682
 C         -7.1425074008       -0.0882814400        1.4356978283
 C         -5.8979750808       -0.6821079901        1.2996149686
 H         -5.3341598211       -1.0352717302        2.1467601487
 H         -7.5725565411        0.0345469899        2.4166224582
 H         -8.7961477605        0.8094264202        0.4197983480
 H         -7.8135143800        0.5280959203       -1.8257276318
 H         -5.5649089700       -0.5389783699       -2.0568873013
 H         -2.2134012509       -1.3122947304        1.4791126794
 H         -3.8371174003        1.1596906099       -0.6274148508
 H         -2.6647477399        3.1715328599       -1.4479339703
 H         -0.3164010600        3.5694443197       -0.8639001398
 H          1.3479334192        1.9224306794        1.8342507305
 C          1.8942066197        3.3151358995        0.3372870607
 C          3.3671063297        3.4781138494        0.1129619611
 C          2.4171071900        3.5908797395       -1.0395065991
 H          2.2457241702        4.5684565896       -1.4661088391
 H          2.3782692001        2.7882802896       -1.7591290592
 H          3.8464572997        4.3740502993        0.4778312013
 H          3.9847704996        2.5941155893        0.1811965712
 H          1.3940322896        4.1368463695        0.8404643107
