  62
        -98.93562584
 C         -2.2648638202       -0.1342168009        0.3515749600
 C         -3.3647457902       -0.7879775104       -0.2590743106
 C         -4.4898123002        0.0801229699       -0.6476937199
 C         -4.4070586602        1.4070515998       -0.4495686188
 C         -5.4958607103        2.3925440900       -0.7590787780
 C         -6.4132450603        2.6074832190        0.4528806721
 C         -6.9038146503        1.3095425784        1.0945083810
 H         -7.5660151404        1.5846371777        1.9183111612
 H         -6.0510512203        0.7836386881        1.5301672606
 C         -7.6445584602        0.3670768092        0.1356193402
 H         -7.9691129102        0.9180685099       -0.7477035294
 H         -8.5422145703       -0.0044400913        0.6342920398
 C         -6.8374664102       -0.8574527304       -0.2994576208
 H         -7.5194251801       -1.5569975100       -0.7899508514
 H         -6.4311169302       -1.3604889312        0.5816033088
 C         -5.6842646601       -0.5846993596       -1.2731474405
 H         -6.0487522501       -0.0026785689       -2.1218163601
 H         -5.3281507901       -1.5501358593       -1.6441794913
 H         -7.2696501803        3.2052256692        0.1356149525
 H         -5.8627667104        3.1751938683        1.2067513626
 H         -6.0748898402        2.0313053907       -1.6067591484
 H         -5.0318462903        3.3435949502       -1.0256699072
 O         -3.3207935503        2.0037079293        0.1073220717
 C         -2.2389997603        1.2513546890        0.5305108612
 O         -1.3240283903        1.9232383686        1.0514749818
 O         -3.4251955802       -2.0236813202       -0.4799365016
 C         -1.0325225402       -0.8721916612        0.8475810695
 C         -0.0054119002       -1.0266163803       -0.2454093106
 C         -0.3565248901       -1.4853976893       -1.5111142210
 C          0.6042867999       -1.6216768184       -2.4960447411
 C          1.9270664999       -1.3086317486       -2.2390367007
 C          2.2915206598       -0.8610441896       -0.9739370403
 C          1.3230411798       -0.7182767505        0.0103626097
 H          1.6121613497       -0.3444242313        0.9809663500
 N          3.6403486698       -0.5984029698       -0.6793370501
 S          4.0495127697        0.6306935893        0.4021898110
 O          3.7569094897        0.1879674482        1.7418676606
 O          3.4540705597        1.8813392496       -0.0128382680
 C          5.8152542397        0.6702545695        0.1585503211
 C          6.5851265397       -0.3000628610        0.7720400403
 C          7.9553310698       -0.2973295208        0.5660298704
 C          8.5299969698        0.6697931399       -0.2454992088
 C          7.7450750998        1.6387987204       -0.8519671980
 C          6.3733639898        1.6407519702       -0.6514495381
 H          5.7246222898        2.3788863206       -1.0952561875
 H          8.1950266998        2.3914474809       -1.4792143473
 H          9.5968295198        0.6700976701       -0.4038035887
 H          8.5691513997       -1.0470040311        1.0385956598
 H          6.0952427697       -1.0247140415        1.4010714597
 H          4.2135867099       -0.5477979891       -1.5110335200
 H          2.6744936700       -1.4145283879       -3.0106479508
 H          0.3191562700       -1.9736417376       -3.4760897514
 H         -1.3859261001       -1.7401659891       -1.7108530313
 H         -0.5914156603       -0.2143057119        1.6147756300
 C         -1.3649870802       -2.1949791318        1.5271988584
 C         -1.0243439902       -3.5312397913        0.9471746473
 C         -0.2665217303       -3.0184533223        2.1322219777
 H         -0.4345809103       -3.4750653731        3.0959296674
 H          0.7478712697       -2.6823203021        1.9741487481
 H         -1.7347659302       -4.3310906515        1.0885395566
 H         -0.5227630701       -3.5587594305       -0.0069954027
 H         -2.2925188503       -2.1367849623        2.0879092284
