  62
        -98.93735581
 C         -1.6857800787       -1.7744776134       -0.0135045915
 C         -1.5401474954       -0.4334385497       -0.4365432759
 C         -2.6805467380        0.4662379239       -0.1700383596
 C         -3.7825415590       -0.0288385136        0.4210193722
 C         -5.0623770833        0.6826292061        0.7818594364
 C         -5.6386785425        1.6400333399       -0.2729368863
 C         -5.5274790455        3.1148002390        0.1179524713
 H         -6.2947373745        3.6770799175       -0.4190734625
 H         -5.7432062218        3.2083793336        1.1843980834
 C         -4.1793694821        3.7668026431       -0.1844080878
 H         -4.0793328962        3.9036630392       -1.2633005552
 H         -4.1846678659        4.7603667754        0.2700124870
 C         -2.9551163933        3.0005686946        0.3210992811
 H         -3.1443901582        2.5909626999        1.3124819611
 H         -2.1355320663        3.7143699685        0.4239416739
 C         -2.4924292448        1.8862726635       -0.6287474592
 H         -1.4159957156        1.9732585711       -0.8066359132
 H         -2.9701355137        2.0069390535       -1.6053006309
 H         -6.6971168391        1.4033648519       -0.3937033729
 H         -5.1583552868        1.4649266257       -1.2343046310
 H         -5.7796766582       -0.1145765800        0.9901409683
 H         -4.9105022831        1.2161324859        1.7234702248
 O         -3.8736861062       -1.3321294232        0.8163282263
 C         -2.8386960138       -2.2269717584        0.6267387047
 O         -3.0607427392       -3.3754401654        1.0607771066
 O         -0.5106265765        0.0034899072       -1.0140539697
 C         -0.5607972495       -2.7733563965       -0.2276942441
 C          0.6684422982       -2.2604398719        0.4798757220
 C          0.6552395678       -2.1928599052        1.8706028688
 C          1.7308164628       -1.6710093200        2.5633786531
 C          2.8397079100       -1.1954452689        1.8842120545
 C          2.8581066480       -1.2503928255        0.4972851461
 C          1.7835384106       -1.7939306537       -0.1958667540
 H          1.8142899013       -1.8274985808       -1.2731069509
 N          3.9772911803       -0.7667244669       -0.2077573974
 S          4.4991455648        0.7991972778        0.0655199651
 O          5.4790404121        1.0508367980       -0.9669118123
 O          4.9654656159        0.9102802268        1.4249423446
 C          3.0810658493        1.8519516573       -0.1793949579
 C          2.1972154990        2.0540821919        0.8610705027
 C          1.0922884030        2.8624194466        0.6507641693
 C          0.8928204048        3.4523734228       -0.5873620527
 C          1.7851941692        3.2325340942       -1.6244657325
 C          2.8883459523        2.4205161355       -1.4222372265
 H          3.6116479346        2.2299291638       -2.1989428818
 H          1.6217106177        3.6881190320       -2.5879972247
 H          0.0368244114        4.0897844428       -0.7471250063
 H          0.3889057592        3.0244494959        1.4522574223
 H          2.3877438404        1.5867076830        1.8133695532
 H          3.9169741754       -0.9275283334       -1.2033695852
 H          3.6814907111       -0.7714563859        2.4074799577
 H          1.7074621630       -1.6301413806        3.6421351659
 H         -0.2184310723       -2.5492275224        2.3998939699
 H         -0.8808139444       -3.7020532814        0.2641595192
 C         -0.3617287225       -3.0464534340       -1.7034443005
 C          0.3554809395       -4.2874121109       -2.1406310863
 C         -1.1240773414       -4.1646802784       -2.3452276370
 H         -1.4968643040       -4.0246720349       -3.3488588486
 H         -1.7806369476       -4.7460428691       -1.7143529907
 H          0.9983279625       -4.2366364577       -3.0064115325
 H          0.7070764151       -4.9572635942       -1.3705554467
 H         -0.2248357832       -2.1433660567       -2.2865903387
