  62
        -98.94108463
 C         -1.2179400535       -0.8608301975        0.6505444636
 C         -2.0478199595       -0.8399138863       -0.4934504539
 C         -2.8157187181        0.3971662673       -0.7217349706
 C         -2.6408910990        1.4400550472        0.1073656119
 C         -3.3526397140        2.7641516139        0.0727466276
 C         -4.5823218281        2.7453617726        0.9968330958
 C         -5.8655440661        2.2237904762        0.3511267755
 H         -6.6144748851        2.1374026686        1.1416542979
 H         -6.2302822961        2.9612890310       -0.3668499242
 C         -5.7409523759        0.8724756089       -0.3576132417
 H         -5.1446336061        0.1905399072        0.2511078371
 H         -6.7417716502        0.4440386387       -0.4385386414
 C         -5.1340733613        0.9819014548       -1.7644586591
 H         -5.1265350421        2.0286756678       -2.0682859330
 H         -5.7752848092        0.4577957692       -2.4761724298
 C         -3.7241226766        0.3908953657       -1.9208475553
 H         -3.7996996503       -0.6638467821       -2.2041573188
 H         -3.2113116412        0.8978068067       -2.7457550023
 H         -4.3347279340        2.1358559125        1.8696387002
 H         -4.7702219950        3.7613220257        1.3499723543
 H         -2.6443368388        3.5075574595        0.4451092509
 H         -3.6268650028        3.0255405098       -0.9451223530
 O         -1.7889086660        1.3978429844        1.1675699877
 C         -1.0564331307        0.2622406965        1.4600463092
 O         -0.3076205634        0.3753872922        2.4525691762
 H          1.3354819572       -0.2967138090        0.0916598629
 C          1.4132625028       -1.1979737029       -0.4959937934
 C          0.6024200066       -2.2801282324       -0.1745267779
 C          0.7086391008       -3.4400774509       -0.9278929898
 C          1.5794153535       -3.4901017191       -2.0039329542
 C          2.3473808522       -2.3946225130       -2.3511176665
 C          2.2627097190       -1.2333608494       -1.5877357607
 N          3.0464599214       -0.1170439400       -1.8973914097
 S          2.7279034349        1.4217367626       -1.3377498015
 O          1.3137825428        1.7103414436       -1.2715596984
 O          3.5062167612        2.2725797472       -2.2143900412
 C          3.4772063854        1.4288421339        0.2770658470
 C          4.8417135637        1.2170564334        0.3386440065
 C          5.4648915440        1.2038768942        1.5749260094
 C          4.7165636562        1.4001574150        2.7265526687
 C          3.3499735007        1.6154598648        2.6483556938
 C          2.7212113245        1.6331548354        1.4124540685
 H          1.6558339151        1.7869851861        1.3288876079
 H          2.7579503563        1.7608508523        3.5378734023
 H          5.1994984380        1.3858617806        3.6909212400
 H          6.5282128829        1.0383409294        1.6390544949
 H          5.3857169140        1.0759053753       -0.5803510313
 H          3.5146470074       -0.1345997459       -2.7898364699
 H          3.0042076942       -2.4300577883       -3.2066126071
 H          1.6475289859       -4.3925878451       -2.5923883059
 H          0.0984690050       -4.2953000664       -0.6891620545
 C         -0.3729457738       -2.0861171865        0.9617385172
 H          0.2001893899       -1.8376878751        1.8667085461
 C         -1.2416167678       -3.2919576392        1.2446699801
 C         -0.7088072822       -4.4173322220        2.0782137851
 C         -1.7583382714       -3.5040741206        2.6347814592
 H         -2.7615230342       -3.8832955267        2.7591852373
 H         -1.4672800725       -2.7860552563        3.3878939275
 H          0.2970405252       -4.3234535941        2.4584020784
 H         -0.9926819717       -5.4271710776        1.8237759575
 H         -1.9063399626       -3.5307762304        0.4230760714
 O         -2.1575460009       -1.8110718715       -1.2884490064
