  62
        -98.93740694
 C          1.8038917103       -0.4442419997       -0.2430121731
 C          2.9327372707       -0.5469199751       -1.0852180965
 C          4.2533270508       -0.6045400773       -0.4285990487
 C          4.3080311785       -0.5620174798        0.9160026205
 C          5.5296151028       -0.5591245913        1.7960406036
 C          6.2429684163        0.8029122064        1.8146820253
 C          6.3908162556        1.4718846173        0.4504837158
 H          6.8020374194        2.4716777866        0.6135668935
 H          5.4027352614        1.5980731156        0.0039786194
 C          7.3042098245        0.7468424273       -0.5349681955
 H          8.3036804842        0.6635793795       -0.1021411332
 H          7.3806154708        1.3728830756       -1.4278141101
 C          6.8459100819       -0.6464974904       -0.9699066708
 H          7.0444751578       -1.3832390567       -0.1962691412
 H          7.4521495786       -0.9332287180       -1.8342810435
 C          5.3892121995       -0.7285393740       -1.4156246603
 H          5.2343674785       -1.6888045462       -1.9226904609
 H          5.2057767149        0.0328760155       -2.1825214976
 H          7.2276601728        0.6708299521        2.2661085482
 H          5.6663086259        1.4764012558        2.4533753536
 H          6.2097926879       -1.3494236004        1.4926798603
 H          5.1871060968       -0.7849979007        2.8081779572
 O          3.1884492545       -0.4681335424        1.6896091229
 C          1.9187180218       -0.4077375236        1.1460969765
 O          0.9995685580       -0.3266372085        1.9822005945
 O          2.8490672431       -0.5786339877       -2.3439909944
 C          0.4225730640       -0.3779308946       -0.8648725300
 C         -0.2985915647        0.8810386167       -0.4507232260
 C          0.4023000864        2.0831058308       -0.3931918573
 C         -0.2282186394        3.2535183975       -0.0203401635
 C         -1.5791425408        3.2570844325        0.2795407387
 C         -2.2936422320        2.0687692874        0.2060517865
 C         -1.6522686827        0.8900222623       -0.1511170639
 H         -2.2259871792       -0.0204806921       -0.1996058850
 N         -3.6637648944        2.0359911342        0.5050312952
 S         -4.6993578815        1.1314876576       -0.4483919595
 O         -4.2466841705        1.0705163258       -1.8183777343
 O         -6.0023552090        1.7270580090       -0.2380604433
 C         -4.6962090322       -0.4949270241        0.2751966584
 C         -4.8092297618       -1.5926637824       -0.5546742567
 C         -4.8625969933       -2.8581370570        0.0090083550
 C         -4.8021678361       -3.0025649058        1.3863230910
 C         -4.6899602633       -1.8894848500        2.2058114187
 C         -4.6412218731       -0.6214652006        1.6490624104
 H         -4.5513801774        0.2632373407        2.2569386725
 H         -4.6396670465       -2.0057466523        3.2765080284
 H         -4.8411377565       -3.9880066295        1.8232397175
 H         -4.9497231443       -3.7245006007       -0.6275546251
 H         -4.8408575767       -1.4356135729       -1.6211018493
 H         -4.0671294500        2.9295802061        0.7464093415
 H         -2.0751221254        4.1715025338        0.5680605681
 H          0.3337328260        4.1741798369        0.0299152258
 H          1.4556859808        2.0862024613       -0.6385645884
 H          0.5920290196       -0.3280112131       -1.9516670538
 C         -0.3484751220       -1.6439773577       -0.5523251183
 C         -1.3601558674       -2.1787761495       -1.5199553187
 C         -0.0498246314       -2.8828352129       -1.3406251608
 H         -0.0395501300       -3.8318705137       -0.8263583011
 H          0.6881948677       -2.8026525231       -2.1254689151
 H         -2.2496406598       -2.6454585140       -1.1244402474
 H         -1.5225962138       -1.6243281165       -2.4323317208
 H         -0.5433241123       -1.7583268608        0.5083745965
