  62
        -98.94506865
 C         -1.2728384360       -1.5093936589        0.3900718808
 C         -1.8128524965       -0.5307679475        1.2621239356
 C         -2.8515379360        0.3386225569        0.7005764782
 C         -3.2056539518        0.2030411623       -0.5897368435
 C         -4.2421403566        1.0178915865       -1.3140960884
 C         -3.7144628149        2.3630600856       -1.8321499661
 C         -3.5000803131        3.4343950575       -0.7620479759
 H         -3.3645950547        4.3834608077       -1.2846811112
 H         -4.3988799639        3.5231204505       -0.1501491265
 C         -2.2803679447        3.1951805012        0.1388755983
 H         -1.7262931324        4.1307256503        0.2531442748
 H         -1.6006953443        2.4917311554       -0.3502351337
 C         -2.6184751824        2.6961695153        1.5443100836
 H         -1.6825448721        2.5228045444        2.0813303746
 H         -3.1723995624        3.4707621754        2.0801100468
 C         -3.4374237816        1.3996696674        1.5833564128
 H         -3.4262830214        1.0206091402        2.6085434311
 H         -4.4694019471        1.6006015086        1.2959944466
 H         -4.4400172412        2.7419753132       -2.5560966310
 H         -2.7734653754        2.1902289030       -2.3611463041
 H         -4.5648697738        0.4212147557       -2.1701015815
 H         -5.1011747775        1.1871198635       -0.6637359818
 O         -2.6505482030       -0.7317064369       -1.4034996020
 C         -1.6539596938       -1.5880689952       -0.9509740598
 O         -1.2144566716       -2.3529301205       -1.8300207005
 H          0.7363511297       -0.2167296006       -0.3113343647
 C          1.3769616186       -1.0578678663       -0.5204457492
 C          1.0517520240       -2.3006118914        0.0062902716
 C          1.8639387314       -3.3819036535       -0.3092181705
 C          2.9599187344       -3.2114601551       -1.1388300325
 C          3.2751903060       -1.9717745600       -1.6637085423
 C          2.4644676342       -0.8833443486       -1.3578482559
 N          2.7223221890        0.3846189421       -1.8878040309
 S          2.0788624141        1.7757730289       -1.2434424211
 O          0.6520716334        1.8238705139       -1.4468315622
 O          2.8419689718        2.8336401794       -1.8716134818
 C          2.4683660159        1.7173836204        0.4965364498
 C          1.4595631922        1.6726992403        1.4360353465
 C          1.7917962758        1.5869372917        2.7784484121
 C          3.1245834956        1.5547508681        3.1573424837
 C          4.1291966776        1.6148739444        2.2029141736
 C          3.8009682130        1.6934027677        0.8595214055
 H          4.5545033142        1.7471783857        0.0909378698
 H          5.1647409363        1.5946407895        2.5019758473
 H          3.3795114504        1.4831066740        4.2028740321
 H          1.0032662872        1.5285913385        3.5121620884
 H          0.4307566326        1.6926797648        1.1109734628
 H          3.6028308016        0.5125878310       -2.3599062415
 H          4.1249958312       -1.8468596966       -2.3166874197
 H          3.5790229159       -4.0614334657       -1.3828247594
 H          1.6322242704       -4.3615217145        0.0750047621
 C         -0.1461668496       -2.3756367273        0.9228921075
 H          0.1389584504       -1.8832121578        1.8694324168
 C         -0.5465722362       -3.7986170299        1.2868542680
 C         -1.9844965377       -4.1921866738        1.4411995865
 C         -1.1805852169       -4.7270185254        0.2961755513
 H         -0.8956636812       -5.7689269308        0.3132366014
 H         -1.3746604253       -4.3385831411       -0.6910177716
 H         -2.7355526913       -3.4446604799        1.2288497853
 H         -2.2491077956       -4.8613129619        2.2464187048
 H          0.1427072586       -4.2470933444        1.9955407333
 O         -1.4364151661       -0.3848530752        2.4560529972
