  62
        -98.94043265
 C          1.9077448303        1.3884525795       -0.3970455301
 C          1.7178010802        0.2068371794        0.3605832498
 C          2.9306442601       -0.3641338108        0.9683984998
 C          4.1063385101        0.2737658291        0.8317510099
 C          5.4221688201       -0.2305304811        1.3474022599
 C          6.1406603400       -1.0848350811        0.2932344998
 C          5.2569830899       -2.1585607409       -0.3421696803
 H          4.4694647800       -1.6739440608       -0.9238658403
 H          5.8793296498       -2.7149004610       -1.0464704103
 C          4.6205312197       -3.1339128309        0.6580623296
 H          5.1559696597       -3.0924193511        1.6073189097
 H          4.7261359296       -4.1495949009        0.2710146696
 C          3.1285668498       -2.9043522308        0.9071434096
 H          2.6041865498       -2.8507635306       -0.0503624204
 H          2.7376255496       -3.7699182708        1.4485846595
 C          2.7765815799       -1.6542428108        1.7235658997
 H          1.7190651499       -1.7173656007        1.9975153597
 H          3.3657839299       -1.6371708509        2.6425829697
 H          7.0070062499       -1.5546551912        0.7625023198
 H          6.5009422701       -0.4250832911       -0.4997367301
 H          6.0478650602        0.6290998388        1.5937985399
 H          5.2537536600       -0.8143746011        2.2503566498
 O          4.2361080803        1.4462064891        0.1590631400
 C          3.1485415904        2.0259123793       -0.4746728900
 O          3.4067528005        3.0984010293       -1.0566478699
 H         -1.8536936897        1.2439620200       -1.5858147002
 C         -1.7112856096        1.6723447799       -0.6058809902
 C         -0.4591100796        2.1221437997       -0.2170133101
 C         -0.3167990996        2.6581401396        1.0608619899
 C         -1.3867290896        2.7131521297        1.9322058199
 C         -2.6339294996        2.2551543199        1.5429353798
 C         -2.7917476397        1.7362493900        0.2665252398
 N         -4.0685980997        1.2872878602       -0.1366851903
 S         -4.6854700999       -0.0901773598        0.5901829596
 O         -6.0404077099       -0.2158203296        0.1012488296
 O         -4.5271959199        0.0233578501        2.0168801896
 C         -3.7016762400       -1.4336733399       -0.0504208205
 C         -4.2529798401       -2.2773847197       -0.9956290105
 C         -3.4704947102       -3.2873497698       -1.5308173506
 C         -2.1520825903       -3.4282944900       -1.1231488406
 C         -1.6137784802       -2.5700986701       -0.1774181305
 C         -2.3927317301       -1.5620541701        0.3677882096
 H         -1.9815911900       -0.8789485102        1.0929916796
 H         -0.5849202902       -2.6528066403        0.1339670495
 H         -1.5396464703       -4.2095419000       -1.5456403506
 H         -3.8872141803       -3.9569458697       -2.2661516907
 H         -5.2807848301       -2.1277776996       -1.2850359006
 H         -4.1599037197        1.1921837203       -1.1389760303
 H         -3.4762973596        2.2746982399        2.2146460398
 H         -1.2518227596        3.1188246496        2.9238606199
 H          0.6563626705        3.0170870795        1.3694504000
 C          0.7531051004        2.0651708297       -1.1153136101
 H          1.0918892405        3.1010115096       -1.2831034400
 C          0.4573942804        1.4752781098       -2.4880852601
 C          1.4878253503        0.6826603997       -3.2344738302
 C          0.2697421802        0.0018340998       -2.6907113603
 H         -0.4846581398       -0.3310764300       -3.3890067003
 H          0.3742365001       -0.6332583702       -1.8256753903
 H          2.4365740103        0.5070542196       -2.7482329502
 H          1.5674833204        0.8266310598       -4.3016848802
 H         -0.1614591395        2.1343579799       -3.0895122401
 O          0.6056116501       -0.3536214204        0.5257549797
