  62
        -98.94488006
 C         -1.9324826492       -0.5247885234       -0.6181863181
 C         -2.9989863086       -1.3142167812       -0.1238238200
 C         -4.3380144448       -0.7278175760       -0.2430334918
 C         -4.4878174806        0.4819020206       -0.8127619485
 C         -5.7912900094        1.2015446374       -1.0305561228
 C         -6.2805176183        1.9912987791        0.1912450960
 C         -6.8131976554        1.1406931548        1.3450303882
 H         -7.3181866315        1.8187372829        2.0359253315
 H         -7.5625917439        0.4451496643        0.9659514220
 C         -5.7318409282        0.3681967203        2.1133611829
 H         -4.7514782404        0.7952707726        1.8893479313
 H         -5.8940380150        0.4858313728        3.1871686596
 C         -5.6971191310       -1.1321240996        1.8220816024
 H         -6.6263598785       -1.5933138787        2.1637415601
 H         -4.8739124819       -1.5726562730        2.3901939900
 C         -5.4927466790       -1.4834326454        0.3425090094
 H         -5.2627660245       -2.5493009670        0.2715269971
 H         -6.4037523609       -1.2837517372       -0.2210762749
 H         -5.4630192707        2.6214377242        0.5493730103
 H         -7.0836179761        2.6499913125       -0.1473128306
 H         -5.6243351857        1.9040724504       -1.8499341746
 H         -6.5576618321        0.4882521110       -1.3352131729
 O         -3.4381897590        1.2032860880       -1.2888209619
 C         -2.1358890920        0.7325175583       -1.1866071869
 O         -1.2752009288        1.5120279601       -1.6372580618
 H          1.7539991452        0.4145122449       -1.1364806108
 C          1.4259440491        0.5269331636       -0.1175004295
 C          0.3086320674       -0.1467922232        0.3476694418
 C         -0.0904096871        0.0526884096        1.6681718210
 C          0.6022376988        0.9150622043        2.4938773330
 C          1.7153814580        1.5908301482        2.0236482095
 C          2.1241718430        1.3981523960        0.7101301117
 N          3.2359804869        2.0912607009        0.2064622253
 S          4.3866649916        1.3203897037       -0.7265926114
 O          5.5055755725        2.2366037093       -0.7461053947
 O          3.8404022251        0.9524148901       -2.0070443507
 C          4.8136172848       -0.1345054052        0.2120282297
 C          4.1928033552       -1.3349473899       -0.0664145669
 C          4.4887563558       -2.4383029387        0.7187319585
 C          5.3930108138       -2.3225679169        1.7629211232
 C          6.0110009035       -1.1095558853        2.0276771900
 C          5.7168981106       -0.0023574810        1.2490555149
 H          6.1828582705        0.9557306379        1.4134021079
 H          6.7174040796       -1.0240111185        2.8375723093
 H          5.6190462831       -3.1838573057        2.3715621012
 H          4.0107673546       -3.3825710116        0.5119114253
 H          3.4982132784       -1.3878158984       -0.8880898531
 H          3.6732218347        2.7149167536        0.8689056033
 H          2.2544286814        2.2727306093        2.6636954176
 H          0.2768374177        1.0632483128        3.5124954694
 H         -0.9626324135       -0.4731159830        2.0320253680
 C         -0.5169889394       -1.0671806741       -0.5156442868
 H         -0.6158961697       -2.0309110933        0.0051228054
 C          0.0614415128       -1.3172912581       -1.8911608874
 C          1.1169909211       -2.3637453006       -2.0809862543
 C         -0.2714543194       -2.5977849110       -2.5944117262
 H         -0.4417406327       -2.5708990039       -3.6602544264
 H         -0.8987219998       -3.3034092141       -2.0694337701
 H          1.4279797136       -2.9198971577       -1.2093587496
 H          1.9044834668       -2.1762538678       -2.7962382390
 H          0.1169451148       -0.4200282648       -2.4976403163
 O         -2.8384514653       -2.4526867867        0.3915491510
