  62
        -98.94089643
 C         -2.3100220740        0.4159728004       -0.2368783867
 C         -3.5517681935        0.9511270012       -0.6552150439
 C         -4.6910460586        0.0248724395       -0.6327883503
 C         -4.4948820089       -1.2478872434       -0.2419614933
 C         -5.5763611218       -2.2813330140       -0.1192744871
 C         -6.1801771851       -2.2900610152        1.2921787917
 C         -6.5751407114       -0.9049735689        1.8045579165
 H         -7.0158046395       -1.0384978722        2.7949195581
 H         -5.6729775705       -0.3024232368        1.9334311730
 C         -7.5629531229       -0.1518725265        0.9026075427
 H         -8.0523602978       -0.8514467659        0.2241096468
 H         -8.3405918696        0.2909954286        1.5283831969
 C         -6.9401491616        0.9869984163        0.0932418254
 H         -6.3687394997        1.6393672948        0.7583381309
 H         -7.7504163837        1.5838193056       -0.3338351764
 C         -6.0276623643        0.5606275422       -1.0635652080
 H         -5.8135750295        1.4503747965       -1.6628778531
 H         -6.5474625480       -0.1625208987       -1.6951331348
 H         -5.4442190764       -2.7122834117        1.9803963576
 H         -7.0555156631       -2.9421192991        1.2886541027
 H         -6.3512687456       -2.0774242463       -0.8556540605
 H         -5.1403190146       -3.2604524853       -0.3242757711
 O         -3.2824436120       -1.7313007952        0.1340623825
 C         -2.1610634501       -0.9144925052        0.1532069162
 O         -1.1166534147       -1.4841373425        0.5248596930
 O         -3.6976777427        2.1442350363       -1.0349307044
 C         -1.0930549788        1.3215184445       -0.2141158641
 C          0.0061523411        0.7564201976       -1.0791518345
 C         -0.3030226536        0.3238490971       -2.3664734353
 C          0.6738803758       -0.2050219174       -3.1864947484
 C          1.9799781537       -0.3123669335       -2.7420110787
 C          2.3046773995        0.1351679571       -1.4672119530
 C          1.3205134401        0.6717277571       -0.6476488338
 H          1.5961342482        1.0043925294        0.3381279778
 N          3.6394347487        0.0911148829       -1.0238032869
 S          4.0021270885       -0.2622684722        0.5860165088
 O          3.4662367017       -1.5530493298        0.9581219866
 O          3.6237226494        0.8546818261        1.4134548994
 C          5.7808816695       -0.3419796123        0.4746995509
 C          6.4829289129        0.8430445269        0.3580208015
 C          7.8632034996        0.7957795058        0.2464670635
 C          8.5155569012       -0.4284525387        0.2539308354
 C          7.7981049107       -1.6088434344        0.3742311562
 C          6.4166651467       -1.5685842723        0.4841225123
 H          5.8177432805       -2.4594653711        0.5858762816
 H          8.3079363373       -2.5587634733        0.3831159473
 H          9.5901602979       -0.4626738714        0.1682230203
 H          8.4248163273        1.7114662658        0.1550895622
 H          5.9341592809        1.7701375006        0.3658941114
 H          4.2230764020       -0.4659465471       -1.6344072311
 H          2.7416308577       -0.7357151589       -3.3792798194
 H          0.4165141439       -0.5448467904       -4.1785832756
 H         -1.3257240752        0.3993685628       -2.7109098051
 H         -1.4267527616        2.2708334261       -0.6606234529
 C         -0.6611435751        1.5832464551        1.2134828786
 C          0.0143049790        2.8708041733        1.5758276352
 C         -1.3926249913        2.6115062411        2.0212704144
 H         -1.5771957171        2.4107484328        3.0660160334
 H         -2.1911369899        3.1487478534        1.5303982409
 H          0.8055203031        2.8450553752        2.3102663916
 H          0.1704865754        3.5901360344        0.7861286804
 H         -0.3423799336        0.6798766818        1.7240871160
