  62
        -98.93549863
 C          2.5038172075        1.1903214943        0.2134759090
 C          3.0739151940        0.2261017902        1.0813837384
 C          3.7541768111       -0.9029360644        0.4406358761
 C          3.7886070711       -0.9832410604       -0.9018825619
 C          4.4558400856       -2.0647068725       -1.7074553905
 C          3.5909120057       -3.3176336884       -1.9021246313
 C          3.4240986324       -4.1922717057       -0.6588972713
 H          2.9865435581       -5.1368326940       -0.9878890809
 H          4.4048989318       -4.4157233228       -0.2378403122
 C          2.5228726283       -3.5856711715        0.4260596716
 H          1.9190565291       -2.7827340003       -0.0057306259
 H          1.8229145726       -4.3440085389        0.7856143935
 C          3.2732541413       -3.0468911785        1.6445783932
 H          2.5418881552       -2.6084492430        2.3288133972
 H          3.7665023985       -3.8717204086        2.1636820844
 C          4.3228231012       -1.9756221931        1.3199211126
 H          5.1924281666       -2.4326678457        0.8485599737
 H          4.6355691767       -1.5082319046        2.2568792239
 H          2.6065482982       -3.0108500329       -2.2643676046
 H          4.0602745579       -3.9200770869       -2.6832327231
 H          5.4004871986       -2.3419374670       -1.2388969655
 H          4.6655080160       -1.6357702419       -2.6895590945
 O          3.2131729270       -0.0499517881       -1.7021209155
 C          2.5321430202        1.0420197028       -1.1748539704
 O          2.0223819866        1.7767337895       -2.0370283792
 O          3.0159067891        0.3061440064        2.3394787974
 C          1.7571147070        2.3575469773        0.8504955300
 C          0.3117322580        2.2426582434        0.4351110361
 C         -0.3209092348        2.9358864914       -0.5887810359
 C         -1.6352695497        2.6525988595       -0.9233839457
 C         -2.3481037882        1.6691232789       -0.2643645479
 C         -1.7228004330        0.9538635283        0.7482924727
 C         -0.4164457418        1.2534082550        1.0934796460
 H          0.0684869947        0.6824720687        1.8767041119
 N         -2.4269689763       -0.0756227968        1.4086505680
 S         -2.9391277693       -1.3469217704        0.4296044789
 O         -3.0359470957       -2.4918060739        1.3094035425
 O         -2.0879755507       -1.4953396333       -0.7294209958
 C         -4.5771610863       -0.8565571204       -0.0658479700
 C         -5.5251575450       -0.6694553148        0.9212219967
 C         -6.8046777972       -0.2837123517        0.5551505782
 C         -7.1131219787       -0.0946197236       -0.7839340871
 C         -6.1510201025       -0.2902998408       -1.7629926003
 C         -4.8685602997       -0.6752591175       -1.4034537076
 H         -4.0858068264       -0.8333911282       -2.1284288824
 H         -6.3923515750       -0.1434832082       -2.8035291181
 H         -8.1095546729        0.2061345520       -1.0667351719
 H         -7.5557520665       -0.1313512362        1.3133428480
 H         -5.2441068340       -0.8326612669        1.9481495745
 H         -1.9240185710       -0.4473700268        2.2028784658
 H         -3.3673187737        1.4430095775       -0.5322599436
 H         -2.1060676779        3.2042464372       -1.7229589513
 H          0.2097284471        3.6753239560       -1.1601561412
 H          1.7871790519        2.1286074509        1.9280723022
 C          2.5186618756        3.6662871172        0.7090595786
 C          2.6548116808        4.4839617040       -0.5384652841
 C          1.8661989875        5.0131296284        0.6218873024
 H          2.2923847716        5.8206869357        1.1984111233
 H          0.7915484727        5.0504457754        0.5438098781
 H          3.6230895415        4.9217589559       -0.7370212224
 H          2.1539608392        4.1472919891       -1.4305399625
 H          3.4183831244        3.6180222148        1.3187669405
