  62
        -98.94212421
 C          0.5857337164        1.8811231013        0.5198497212
 C          1.5172891312        1.6951696346       -0.5306678676
 C          2.7088963091        0.8997065796       -0.2005411214
 C          2.8645521152        0.4320829500        1.0508331565
 C          3.9545453007       -0.4959948360        1.5051702296
 C          3.6188626886       -1.9388590491        1.0732419658
 C          4.5842147692       -2.5315317638        0.0462573323
 H          5.5139412377       -2.8096095712        0.5483004745
 H          4.1249746744       -3.4465045683       -0.3345887976
 C          4.9409006028       -1.6248179103       -1.1357818288
 H          5.3889359076       -2.2617888481       -1.9015218171
 H          5.7109301173       -0.9132237521       -0.8324830209
 C          3.7733957938       -0.8494716716       -1.7608601927
 H          3.9042555640       -0.8498996493       -2.8452755603
 H          2.8245904738       -1.3490316135       -1.5557792161
 C          3.6777740028        0.6227151336       -1.3146824125
 H          4.6710224269        0.9920092706       -1.0443321828
 H          3.3187103715        1.2222215103       -2.1564730076
 H          2.6054323093       -1.9561027515        0.6639775231
 H          3.6125328512       -2.5898624726        1.9495560803
 H          4.9077499733       -0.1819601536        1.0858266958
 H          4.0104034597       -0.4290516039        2.5922095085
 O          1.9800840543        0.6877895305        2.0497183518
 C          0.8044399296        1.3827982219        1.8018332067
 O          0.0513055063        1.4873106583        2.7915741131
 H         -0.5277228738       -0.0750701572       -0.3154882651
 C         -1.2719615893        0.3933252774       -0.9384412772
 C         -1.5052208067        1.7551164136       -0.8166613675
 C         -2.4500015831        2.3378214946       -1.6536686683
 C         -3.1206648846        1.5713100746       -2.5911537423
 C         -2.8739145497        0.2155063820       -2.7150561559
 C         -1.9314017104       -0.3765504211       -1.8822009700
 N         -1.6209380903       -1.7377486646       -1.9843061935
 S         -0.9845268418       -2.5906000721       -0.7030376295
 O          0.3828352433       -2.2059879125       -0.4562297903
 O         -1.1895884259       -3.9756412533       -1.0711064944
 C         -2.0199027738       -2.1823484131        0.6904779564
 C         -1.4900282944       -1.5434409525        1.7916497061
 C         -2.3294039252       -1.1956530641        2.8380258007
 C         -3.6795635097       -1.5001758991        2.7679359339
 C         -4.1966094818       -2.1578219237        1.6613947122
 C         -3.3622797716       -2.4994589389        0.6102618696
 H         -3.7283534051       -3.0147538974       -0.2626819862
 H         -5.2465085225       -2.3979062949        1.6135128317
 H         -4.3305974748       -1.2232686773        3.5820324750
 H         -1.9174359999       -0.6717494981        3.6860379269
 H         -0.4360580865       -1.3121321590        1.8187855614
 H         -2.2198244300       -2.2906582203       -2.5772074719
 H         -3.3904373541       -0.3757405762       -3.4551272951
 H         -3.8474403714        2.0377667150       -3.2386538846
 H         -2.6527231300        3.3937348689       -1.5773091113
 C         -0.7508494166        2.5376528421        0.2356278799
 H         -1.3237628277        2.4820303925        1.1739385890
 C         -0.5704419078        3.9960815440       -0.1370978960
 C         -1.5805642705        5.0204932810        0.2823791041
 C         -0.2368051850        4.9791222026        0.9435269432
 H          0.4737379661        5.7626543210        0.7273899529
 H         -0.1732837854        4.5989209798        1.9530332025
 H         -1.7931594699        5.8388648666       -0.3890194350
 H         -2.4318035523        4.6823876739        0.8539771975
 H         -0.0796912129        4.1201244533       -1.0953697110
 O          1.3527914942        2.1534178980       -1.6918424192
