  62
        -98.94411329
 C         -1.4449639129       -1.3041769564        0.7024863623
 C         -2.4591799738       -1.1959374790       -0.2800565361
 C         -3.3545863523       -0.0375218579       -0.1425299641
 C         -3.1372529286        0.8735949983        0.8223856135
 C         -3.9777063485        2.0912908692        1.0993049720
 C         -3.6728882114        3.2987137133        0.2016238576
 C         -4.1491726534        3.1758946696       -1.2464986254
 H         -5.2022820213        2.8933690943       -1.2601625394
 H         -4.0735758955        4.1693543128       -1.6931093509
 C         -3.3390760389        2.1903742991       -2.0999179210
 H         -2.3880903812        1.9767377362       -1.6074389209
 H         -3.1029094720        2.6488846452       -3.0628464483
 C         -4.0453506622        0.8661992357       -2.3861744777
 H         -4.9293635450        1.0468334941       -3.0019345597
 H         -3.3634396705        0.2291143617       -2.9550805108
 C         -4.4751729724        0.0990173280       -1.1298647614
 H         -5.3297718837        0.5905309192       -0.6648239386
 H         -4.7733702958       -0.9080006470       -1.4321743489
 H         -2.5974020989        3.4876437839        0.2131449792
 H         -4.1658347160        4.1654028539        0.6481398859
 H         -5.0332278843        1.8316309257        1.0091718582
 H         -3.7799142148        2.3740308307        2.1355066706
 O         -2.1076591644        0.7693244658        1.7040952114
 C         -1.2457179241       -0.3112119133        1.6672311989
 O         -0.3533184755       -0.2846906961        2.5379325028
 H          1.9342495463       -1.4278566402        1.3559555682
 C          1.8426890956       -1.6005232994        0.2916240087
 C          0.6699221881       -2.1525232651       -0.2062124627
 C          0.5478017750       -2.3307246394       -1.5798343285
 C          1.5813990300       -1.9719772487       -2.4272951113
 C          2.7522190083       -1.4275856273       -1.9273643754
 C          2.8764586028       -1.2351404751       -0.5584531749
 N          4.0565358814       -0.6438250575       -0.0472633897
 S          4.2233064264        0.9903412201       -0.3793186846
 O          4.2894433788        1.1649896334       -1.8071911766
 O          5.3725909809        1.4311542747        0.3768281563
 C          2.7395013963        1.7399162975        0.2657372632
 C          1.5835040944        1.6826915512       -0.4863030077
 C          0.4146160307        2.1958526756        0.0500810148
 C          0.4170091822        2.7511416588        1.3192899592
 C          1.5861873645        2.7991616689        2.0614719422
 C          2.7584673254        2.2833914907        1.5344405469
 H          3.6890016433        2.2990435550        2.0793709370
 H          1.5819061520        3.2256033534        3.0516270982
 H         -0.5003892305        3.1338483023        1.7384999769
 H         -0.4987128697        2.1460797721       -0.5230373301
 H          1.6124848263        1.2448221479       -1.4713000166
 H          4.1606982767       -0.7788649315        0.9495353113
 H          3.5579123557       -1.1242955459       -2.5758727539
 H          1.4738253840       -2.1151036840       -3.4919554269
 H         -0.3733685181       -2.7243447736       -1.9798357557
 C         -0.4559855243       -2.4604065650        0.7495994897
 H         -0.0386167506       -2.4512433168        1.7655270110
 C         -1.0856031585       -3.8156576576        0.5070234937
 C         -0.3260462212       -5.0433541600        0.9076072342
 C         -1.5413882039       -4.6283015915        1.6798968003
 H         -2.4425116376       -5.2146085249        1.5806188290
 H         -1.4008072884       -4.2099760294        2.6662260797
 H         -0.3898801141       -5.9172728296        0.2778130004
 H          0.6399524604       -4.9052209830        1.3699416140
 H         -1.6880961447       -3.8655105251       -0.3892601353
 O         -2.6389222436       -2.0129699194       -1.2198888028
