  62
        -98.93563786
 C         -2.1657908479       -0.8832254932       -0.3666862286
 C         -3.1647490160       -0.6653299126        0.6165861494
 C         -3.8020672799        0.6614726277        0.6510742538
 C         -3.4087153016        1.6009462071       -0.2286027123
 C         -3.8297845626        3.0448184256       -0.4066289188
 C         -5.0753908214        3.5853774128        0.2903766844
 C         -6.3951467092        3.0138531350       -0.2274716004
 H         -7.2011197233        3.3826050267        0.4105158848
 H         -6.5666151518        3.3980113188       -1.2361371081
 C         -6.4720669713        1.4907980105       -0.2965257620
 H         -5.7246113981        1.1172161367       -0.9993309888
 H         -7.4533812594        1.2237625728       -0.6978397758
 C         -6.3041219704        0.7664385443        1.0374681419
 H         -6.5323725270       -0.2895634830        0.8700161140
 H         -7.0252948794        1.1536587245        1.7597649529
 C         -4.8995386652        0.8421941447        1.6602088017
 H         -4.7617156109        1.7673139127        2.2149996801
 H         -4.7997845985        0.0167891452        2.3711026945
 H         -5.0894363728        4.6636655587        0.1097079534
 H         -4.9934498788        3.4484189971        1.3646584712
 H         -3.9290733184        3.1960313674       -1.4863285143
 H         -2.9673113932        3.6427724954       -0.0909172837
 O         -2.4336779443        1.3516551371       -1.1490543957
 C         -1.7924786995        0.1282266700       -1.2492310384
 O         -0.9367864140        0.0963087681       -2.1575892194
 O         -3.5142495898       -1.5527118439        1.4402946274
 C         -1.5155776138       -2.2573562292       -0.3873582774
 C         -0.1801872977       -2.2207013574        0.3173661821
 C          0.0145260237       -2.8976655103        1.5154574773
 C          1.2325402351       -2.8365673155        2.1702577529
 C          2.2797271508       -2.0991125684        1.6470909392
 C          2.0899469395       -1.4096290962        0.4569136772
 C          0.8726844857       -1.4818984157       -0.2036105862
 H          0.7292196021       -0.9313793807       -1.1218629859
 N          3.1486943286       -0.6421617508       -0.0876561964
 S          3.5964518979        0.7307484515        0.7918798750
 O          3.8261516619        0.3489614249        2.1617467160
 O          2.6404961980        1.7987124071        0.5784396129
 C          5.1450556903        1.1276546805        0.0057067699
 C          6.2499737694        0.3567859832        0.3119840709
 C          7.4538027084        0.6330644269       -0.3155965161
 C          7.5318675553        1.6691979399       -1.2345961799
 C          6.4140470017        2.4337844379       -1.5315440363
 C          5.2061432777        2.1611206213       -0.9081506073
 H          4.3124508700        2.7319979465       -1.1044308364
 H          6.4771777921        3.2394924032       -2.2452302386
 H          8.4699440222        1.8833475532       -1.7219352094
 H          8.3255390372        0.0413697691       -0.0872750929
 H          6.1432570783       -0.4329815402        1.0367242307
 H          2.9111378597       -0.3282362467       -1.0213096767
 H          3.2250164782       -2.0282658554        2.1585842739
 H          1.3680433220       -3.3679762662        3.1000950376
 H         -0.8041480687       -3.4590760582        1.9420907774
 H         -2.1849285148       -2.8988170760        0.2013476082
 C         -1.3880859546       -2.8453522651       -1.7788449288
 C         -1.2164080220       -4.3264488087       -1.9265242430
 C         -2.5058580630       -3.6773065382       -2.3287133011
 H         -2.7392279897       -3.5946546018       -3.3795939823
 H         -3.3715614730       -3.8288575147       -1.7005234334
 H         -0.5613865059       -4.6934535617       -2.7014832536
 H         -1.2077709263       -4.9199003849       -1.0249180422
 H         -0.8603242603       -2.2040921455       -2.4724646070
