  62
        -98.94092308
 C         -2.6822746901       -0.5160274994       -0.0516892098
 C         -2.1663554497        0.3687105802       -1.0324379500
 C         -2.3960583791        1.8030606504       -0.7860826903
 C         -3.0691105190        2.1931137708        0.3101371097
 C         -3.3208611285        3.6179106710        0.7088623994
 C         -2.2068024583        4.1436686507        1.6240931393
 C         -0.7958028184        3.8898701301        1.0924849294
 H         -0.0963235882        4.3430175599        1.7984907293
 H         -0.5932229388        2.8158546000        1.0884188596
 C         -0.5368465581        4.4487778697       -0.3131961607
 H         -1.2891740378        5.1994503100       -0.5604647208
 H          0.4351784521        4.9461270794       -0.3181218808
 C         -0.4953422185        3.3866874495       -1.4139370305
 H          0.1811926512        2.5801240993       -1.1180552904
 H         -0.0809483683        3.8460311592       -2.3162043606
 C         -1.8478826688        2.7711715900       -1.7963917004
 H         -2.5703685985        3.5651121402       -2.0004304106
 H         -1.7008886490        2.1946702698       -2.7147785403
 H         -2.3550656178        5.2159588708        1.7653374292
 H         -2.2990696685        3.6553076609        2.5968990694
 H         -3.3917891582        4.2328137009       -0.1861248807
 H         -4.2702791184        3.6604468415        1.2455075094
 O         -3.5698174694        1.3160389812        1.2176473198
 C         -3.3727691899       -0.0446166389        1.0684997401
 O         -3.8687558102       -0.7332447786        1.9844027002
 O         -1.5507478498        0.0091409698       -2.0712629299
 C         -2.5015802806       -2.0238180195       -0.0898625496
 C         -1.2170325508       -2.4478194498        0.5864682005
 C         -1.1754267113       -3.6046160597        1.3566283807
 C          0.0044121286       -4.0091737801        1.9541753708
 C          1.1615276889       -3.2686950405        1.7978866707
 C          1.1284297993       -2.1023274307        1.0399926305
 C         -0.0553023705       -1.7059211803        0.4347125904
 H         -0.0617818202       -0.8099552604       -0.1656718898
 N          2.2771403196       -1.3060858611        0.9207035803
 S          2.4562007500       -0.2520782014       -0.3832755898
 O          1.6403890605        0.9114293889       -0.1523592701
 O          2.2661782698       -0.9612577616       -1.6282073697
 C          4.1782500502        0.1708403979       -0.1919242299
 C          4.5241815406        1.2664741179        0.5751671399
 C          5.8661242607        1.5701512874        0.7436949999
 C          6.8345837504        0.7769435070        0.1469798900
 C          6.4726425700       -0.3184566130       -0.6229029798
 C          5.1326643699       -0.6268714425       -0.7953100598
 H          4.8043721596       -1.4593708525       -1.3968293896
 H          7.2273539098       -0.9308682034       -1.0893914797
 H          7.8779440705        1.0157889066        0.2794945600
 H          6.1506980611        2.4233622174        1.3380058597
 H          3.7356842809        1.8570576483        1.0122054998
 H          3.1321293594       -1.8000531814        1.1347778404
 H          2.0820570587       -3.5800397008        2.2672560807
 H          0.0240091382       -4.9099787800        2.5484002409
 H         -2.0780622515       -4.1808496293        1.4934369108
 H         -3.3349803408       -2.4399534690        0.4946559605
 C         -2.5542881609       -2.6195396997       -1.4840883195
 C         -3.0550139414       -4.0190636295       -1.6702429392
 C         -3.8822317709       -2.8586804893       -2.1341948694
 H         -3.9749569509       -2.6732297894       -3.1935230995
 H         -4.7659301809       -2.6032546388       -1.5672816295
 H         -2.5764983416       -4.6391511298       -2.4125722591
 H         -3.3888544816       -4.5563723992       -0.7958026391
 H         -1.7432583807       -2.2855450401       -2.1188170095
