  62
        -98.94089179
 C          0.7323934645        1.5402590359        0.2305819367
 C          1.3832636716        0.9103983400       -0.8587361363
 C          2.4917862173        0.0100517107       -0.4929981710
 C          2.7409623929       -0.2755073227        0.7955533677
 C          3.8144519017       -1.1938562194        1.3118411705
 C          5.1824173627       -0.5156939436        1.4709155219
 C          5.9086710999       -0.2067199996        0.1609069644
 H          6.9338225109        0.0660705159        0.4192953712
 H          5.9566338618       -1.1091921529       -0.4491101704
 C          5.2864207915        0.9353954265       -0.6548304417
 H          4.6215125492        1.5201659196       -0.0148896559
 H          6.0746928209        1.6101298205       -0.9966491377
 C          4.5105363174        0.4834784812       -1.8926308401
 H          5.1959434156        0.0163072770       -2.6034442954
 H          4.0831586330        1.3686368404       -2.3710521584
 C          3.3669611401       -0.4974682789       -1.5995675447
 H          2.7521476782       -0.5850825154       -2.4986674928
 H          3.7750841300       -1.4760796143       -1.3495214682
 H          5.0516503525        0.4068759809        2.0411536700
 H          5.8129283225       -1.1844139501        2.0613073749
 H          3.4834792156       -1.5375396737        2.2937243872
 H          3.9120400527       -2.0547731103        0.6512481293
 O          2.0081316517        0.2549867922        1.8108361912
 C          1.0415965467        1.2108440365        1.5552009132
 O          0.5195525413        1.6955078981        2.5789755312
 H         -1.4075441337        0.1325527439       -0.2131981585
 C         -2.0569796624        0.7669452574        0.3718436130
 C         -1.6636826778        2.0668680995        0.6516009631
 C         -2.4999170555        2.8706143739        1.4172663761
 C         -3.7086935627        2.3841408997        1.8807025451
 C         -4.1076552415        1.0942100456        1.5822232050
 C         -3.2728003399        0.2779013260        0.8267009471
 N         -3.6341897167       -1.0442315716        0.5486063495
 S         -3.0319872587       -1.8630867895       -0.7715911884
 O         -2.9482519684       -1.0171243657       -1.9382360312
 O         -3.8977368310       -3.0174309988       -0.8931496770
 C         -1.4217898683       -2.4157264708       -0.2563281613
 C         -1.2836246688       -2.9325818287        1.0166578961
 C         -0.0512196201       -3.4291718459        1.4075215635
 C          1.0123110751       -3.4146061128        0.5185709708
 C          0.8571666556       -2.8929087649       -0.7556536972
 C         -0.3698535171       -2.3829952393       -1.1487317860
 H         -0.5232214241       -1.9494441278       -2.1248747589
 H          1.6824568525       -2.8793388679       -1.4483283164
 H          1.9670376335       -3.8144133954        0.8210789528
 H          0.0755030914       -3.8292743901        2.4006198260
 H         -2.1344837720       -2.9364178017        1.6774874300
 H         -4.5731560230       -1.3132590917        0.7994886395
 H         -5.0520938352        0.7133374810        1.9393921443
 H         -4.3491636296        3.0153712360        2.4777040029
 H         -2.1893304405        3.8757153637        1.6616801098
 C         -0.3593226112        2.5955057125        0.1109555494
 H         -0.0536876945        3.4265021176        0.7708847360
 C         -0.5240396606        3.1748322420       -1.2854770848
 C         -1.5261074775        2.6608091726       -2.2701826504
 C         -1.7229281760        4.0046749795       -1.6383990681
 H         -1.5746268444        4.8849891100       -2.2455760742
 H         -2.5077029783        4.1001209895       -0.9035188223
 H         -2.1700930552        1.8458990864       -1.9734443535
 H         -1.2244240598        2.6072522071       -3.3052548881
 H          0.4239694331        3.4992099957       -1.7001927949
 O          1.1007958502        1.0739560190       -2.0724675368
