  62
        -98.94144464
 C         -2.5647402927       -0.1378983538        0.1241998710
 C         -2.5515933795        0.9978215647        0.9713656774
 C         -2.2126621343        2.2764456975        0.3401879994
 C         -1.9212681780        2.3126443364       -0.9723873651
 C         -1.5396996158        3.5344101263       -1.7625763711
 C         -0.0492348129        3.8851290521       -1.6553100764
 C          0.3742431577        4.5119925232       -0.3262082083
 H          1.3704650251        4.9335223931       -0.4738172406
 H         -0.2972987218        5.3355948893       -0.0797578377
 C          0.4321859865        3.5224768029        0.8461304427
 H          0.4794633779        2.5001637878        0.4613370992
 H          1.3536724673        3.6811523467        1.4126468843
 C         -0.7267086643        3.6357474224        1.8374631035
 H         -0.6075597706        2.8477998858        2.5863334509
 H         -0.6758764145        4.5994086868        2.3505659647
 C         -2.1206406315        3.4914646344        1.2134025231
 H         -2.3719233798        4.3868098714        0.6448288946
 H         -2.8454121639        3.3738935537        2.0232743975
 H          0.5343094747        2.9765682526       -1.8246263695
 H          0.1805861806        4.5902046308       -2.4576959815
 H         -2.1426266899        4.3854068992       -1.4440219946
 H         -1.7694493412        3.3137196275       -2.8071649039
 O         -1.9538880377        1.2050924153       -1.7566520319
 C         -2.2223374419       -0.0489529850       -1.2268214372
 O         -2.1402408869       -0.9721388696       -2.0590386471
 O         -2.8045444921        0.9417709719        2.2067072647
 C         -2.7793852606       -1.4952160438        0.7705839532
 C         -1.6454859812       -2.4147312033        0.3851318840
 C         -1.8050758689       -3.7365032616       -0.0050389168
 C         -0.7000030301       -4.5038463469       -0.3374038646
 C          0.5739746574       -3.9703469942       -0.3111258162
 C          0.7428151569       -2.6407543379        0.0668657695
 C         -0.3576451512       -1.8938390124        0.4433679460
 H         -0.2146020808       -0.8712495916        0.7635318568
 N          2.0136643754       -2.0429967089        0.0251582597
 S          2.2436691384       -0.4319990319        0.4233043771
 O          2.0052865425       -0.2040412648        1.8338571296
 O          1.4974801310        0.3861911307       -0.4984267411
 C          3.9889118542       -0.2986548778        0.0872522528
 C          4.4008774780       -0.0550224499       -1.2088937532
 C          5.7584526488        0.0096049813       -1.4801867534
 C          6.6768249110       -0.1716474007       -0.4566447456
 C          6.2489122558       -0.4129262713        0.8401579320
 C          4.8924566991       -0.4780319664        1.1175815987
 H          4.5126241472       -0.6518061369        2.1115269741
 H          6.9648452543       -0.5498299160        1.6344645665
 H          7.7326435729       -0.1216710283       -0.6709064169
 H          6.0941837301        0.2004856366       -2.4866950398
 H          3.6492636827        0.0848191340       -1.9688083571
 H          2.7814365785       -2.6450278138        0.2807846531
 H          1.4297129405       -4.5636417307       -0.5926981294
 H         -0.8376189688       -5.5323203392       -0.6352725029
 H         -2.7921632196       -4.1647135848       -0.0651696531
 H         -2.6866770416       -1.2919127675        1.8524160425
 C         -4.1596861625       -2.1011035424        0.5658815814
 C         -5.3242166594       -1.2556110398        0.1469519811
 C         -4.7629321352       -2.2764356284       -0.7944021967
 H         -5.3427325174       -3.1675756596       -0.9858535285
 H         -4.1856625610       -1.9350971258       -1.6387681887
 H         -6.2845162006       -1.4436257600        0.6035652740
 H         -5.1344292829       -0.2121264275       -0.0605804533
 H         -4.3749017878       -2.8760749661        1.2953598709
