  62
        -98.94489880
 C          1.0626884167        1.4371295605       -0.6751432373
 C          2.3191820238        1.6827963856       -0.0607009703
 C          3.3258684018        0.6215252273       -0.1772497145
 C          3.0177198791       -0.5008995597       -0.8519763780
 C          3.9293826780       -1.6826658813       -1.0097752534
 C          3.7301658989       -2.7022763866        0.1201204594
 C          3.7245650484       -2.0853329200        1.5183731399
 H          2.8552939055       -1.4309125784        1.6161463531
 H          3.5977749451       -2.9006943436        2.2338597747
 C          4.9941270623       -1.2965149746        1.8681441474
 H          5.3108204078       -1.5694279204        2.8770767014
 H          5.8018145991       -1.5740009992        1.1897178739
 C          4.8212390793        0.2232125968        1.8519507193
 H          5.7031378812        0.6711336926        2.3179029388
 H          3.9550788575        0.5013287923        2.4577877450
 C          4.6632588010        0.8598622776        0.4654981314
 H          5.4706537490        0.5230695655       -0.1881246387
 H          4.7485686990        1.9438426950        0.5859073656
 H          4.5231065314       -3.4494922164        0.0537648083
 H          2.7730310252       -3.2021234730       -0.0343947894
 H          3.7064381940       -2.1620284338       -1.9642456482
 H          4.9610562533       -1.3356606699       -1.0221542646
 O          1.8139726410       -0.6962677664       -1.4433356429
 C          0.8065971438        0.2572979749       -1.3753612053
 O         -0.2301383776       -0.0793958829       -1.9794611589
 O          2.5883887854        2.7517725755        0.5511514290
 C          0.0188948635        2.5316564324       -0.5307519109
 C         -0.9310328200        2.2319143251        0.6045805994
 C         -1.0590429472        3.1087530532        1.6754327320
 C         -1.9345850123        2.8307438256        2.7101895752
 C         -2.6967719388        1.6772861246        2.6945304860
 C         -2.5693316747        0.7885056561        1.6313207629
 C         -1.6907769629        1.0700800322        0.5956541901
 H         -1.6038452464        0.3825772501       -0.2300274272
 N         -3.2884336136       -0.4108806930        1.6207157345
 S         -3.6510931460       -1.2358927814        0.2173406576
 O         -4.0464754373       -0.3427714472       -0.8464909365
 O         -4.6621938373       -2.1889610575        0.6321386827
 C         -2.1776616081       -2.1393422988       -0.2040685123
 C         -1.2974469827       -2.5165078952        0.7895897693
 C         -0.1949885819       -3.2831605010        0.4492723866
 C          0.0023093095       -3.6647705479       -0.8685865541
 C         -0.8901391923       -3.2765497575       -1.8538193767
 C         -1.9915322399       -2.5058713957       -1.5206680774
 H         -2.6985831471       -2.1666876721       -2.2606986997
 H         -0.7272236360       -3.5603563049       -2.8811622130
 H          0.8589618312       -4.2651748521       -1.1339105243
 H          0.5071415227       -3.5770036680        1.2141014596
 H         -1.4741531773       -2.1995707454        1.8045120107
 H         -3.9911777053       -0.5188006474        2.3360034729
 H         -3.3813554061        1.4587128496        3.4997025075
 H         -2.0267682794        3.5197568056        3.5359862051
 H         -0.4580149223        4.0058408928        1.6981913821
 H          0.5863133655        3.4337930433       -0.2628454752
 C         -0.7575727322        2.8176027781       -1.8008726624
 C         -1.3399711741        4.1831586807       -2.0033128878
 C         -0.1709875486        3.7362592621       -2.8282224892
 H         -0.3279978825        3.5085288433       -3.8717654184
 H          0.7965069728        4.1681292227       -2.6163479576
 H         -2.3056834630        4.2633911123       -2.4785306921
 H         -1.1643707024        4.9228351937       -1.2367655652
 H         -1.3295690365        1.9705397064       -2.1576753725
