  62
        -98.93503423
 C         -2.3592352350       -1.3693309852       -0.0867318726
 C         -3.2332667242       -0.8478603035        0.8994071593
 C         -4.2294865492        0.1532882742        0.4727463215
 C         -4.2527428482        0.5271778616       -0.8196825957
 C         -5.1486960998        1.5338403765       -1.4924736973
 C         -4.7623480430        2.9857884093       -1.1740592683
 C         -4.4812762322        3.2643192179        0.2997807603
 H         -3.6588100037        2.6290372267        0.6341302783
 H         -4.1419043707        4.3003453590        0.3824380081
 C         -5.6759829824        3.0865390302        1.2341722076
 H         -6.4937289801        3.7266163535        0.8960514732
 H         -5.3668541422        3.4372527722        2.2220779830
 C         -6.2022999199        1.6567199914        1.3848122037
 H         -6.8434110793        1.6382824044        2.2707794706
 H         -6.8306661289        1.3748008149        0.5440839684
 C         -5.1210285581        0.6038668660        1.6046203302
 H         -4.4527074953        0.9343348980        2.4080746826
 H         -5.5933835770       -0.3101954453        1.9837492268
 H         -5.5635192097        3.6390654292       -1.5241837599
 H         -3.8581106831        3.2287712457       -1.7380255732
 H         -5.0434160697        1.3744603858       -2.5680599832
 H         -6.1856198280        1.3459931345       -1.2300040100
 O         -3.3792089586        0.0158592200       -1.7323162491
 C         -2.4217383734       -0.9314739709       -1.4091176066
 O         -1.7185171108       -1.2778473339       -2.3779003433
 H          0.1774315589       -0.9070739573       -1.2318435005
 C          0.6452342937       -1.0886427058       -0.2751613470
 C         -0.0202345043       -1.8578383952        0.6697144597
 C          0.5903738129       -2.0741187098        1.8995082218
 C          1.8386819010       -1.5403851687        2.1689530510
 C          2.5055178517       -0.7883070156        1.2183679487
 C          1.8996550902       -0.5572943796       -0.0099379698
 N          2.5713657632        0.1867597513       -0.9941214226
 S          3.3006746848        1.6318673060       -0.5564721972
 O          2.6188805519        2.2573674092        0.5536997135
 O          3.3809768458        2.4027852435       -1.7778429886
 C          4.9429420032        1.1419870878       -0.0716409935
 C          5.4609870293        1.5650108627        1.1367195744
 C          6.7459103974        1.1794075788        1.4867293266
 C          7.4859383947        0.3828213564        0.6265762392
 C          6.9519701549       -0.0313245499       -0.5847483618
 C          5.6688674606        0.3515563264       -0.9412300692
 H          5.2178913046        0.0519196892       -1.8725449734
 H          7.5299959302       -0.6512419981       -1.2510192595
 H          8.4846862487        0.0826613894        0.9017353368
 H          7.1626800670        1.5006453069        2.4277572261
 H          4.8458972462        2.1773994090        1.7768247794
 H          2.0445705289        0.2886257452       -1.8498487269
 H          3.4782396544       -0.3715572722        1.4221340537
 H          2.3001227416       -1.7143124541        3.1289361110
 H          0.0728018945       -2.6523500156        2.6508525457
 C         -1.3782500330       -2.4369242815        0.3668247296
 H         -1.7969653325       -2.8036121905        1.3173445595
 C         -1.3199206003       -3.6239560247       -0.5869919297
 C         -0.1286661596       -3.9694256457       -1.4244092137
 C         -0.4812012582       -4.8195494403       -0.2432784193
 H         -0.8882622017       -5.8047316736       -0.4125452698
 H          0.1507494452       -4.7438189051        0.6287941086
 H         -0.3131169102       -4.3510650486       -2.4171270521
 H          0.7458968919       -3.3421665175       -1.3577652536
 H         -2.2889148487       -3.8235029807       -1.0343928721
 O         -3.1946275017       -1.2142265608        2.1052903259
