  62
        -98.93813267
 C         -0.7653293611       -1.9949492490       -0.1708768621
 C         -1.1408066706       -0.7720912583       -0.7731702910
 C         -2.5389952605       -0.3300831480       -0.5688485508
 C         -3.3343979609       -1.0317706786        0.2587043784
 C         -4.7570649808       -0.7540706485        0.6707213684
 C         -4.8803532506        0.4229966306        1.6469100296
 C         -4.1477027001        1.6870326108        1.2084470709
 H         -4.2895223900        2.4384062301        1.9892464116
 H         -3.0791582001        1.4781935105        1.1438904709
 C         -4.6318232897        2.2801971222       -0.1128066586
 H         -5.7140339096        2.4194047226       -0.0698901987
 H         -4.1774926293        3.2679879522       -0.2128759176
 C         -4.2860904097        1.4774991733       -1.3717865293
 H         -4.3532810193        2.1601007242       -2.2234974287
 H         -5.0112219600        0.6883688038       -1.5558800002
 C         -2.8775988799        0.8925487829       -1.3872824297
 H         -2.6251292198        0.6220585238       -2.4197683999
 H         -2.1536718097        1.6656912824       -1.1103663288
 H         -5.9413197405        0.6417595008        1.7825726396
 H         -4.4743911009        0.1109618595        2.6123056393
 H         -5.3792938706       -0.5890398574       -0.2038201915
 H         -5.1161611712       -1.6581449988        1.1679300075
 O         -2.8947226313       -2.1546399693        0.8985419974
 C         -1.6449103615       -2.6854770695        0.6683883771
 O         -1.4279369620       -3.7627063402        1.2605371561
 H          1.5524449695       -0.1418588297       -0.3062486899
 C          2.0525068192       -0.7926681505        0.3933918796
 C          1.6644416787       -2.1219465805        0.4910019482
 C          2.3127542383       -2.9467441416        1.4030428375
 C          3.3387502783       -2.4551840927        2.1899994082
 C          3.7416376888       -1.1379102227        2.0731189695
 C          3.0911946992       -0.3016224717        1.1709659202
 N          3.4585044497        1.0435842683        1.0713656316
 S          3.1456462603        1.9912856497       -0.2617455076
 O          3.3281411202        1.2723293809       -1.5000159082
 O          4.0139995806        3.1385505992       -0.0794216163
 C          1.4690988104        2.5546228601       -0.0642700473
 C          0.8720596402        2.5262523191        1.1790977726
 C         -0.3881345396        3.0828854994        1.3293581529
 C         -1.0200882092        3.6672630207        0.2437519134
 C         -0.4108293090        3.6793956317       -1.0015986365
 C          0.8453108008        3.1173256914       -1.1590501369
 H          1.3500893810        3.0979156221       -2.1116756268
 H         -0.9097778687        4.1216594626       -1.8494084962
 H         -1.9956271291        4.1102256209        0.3690901836
 H         -0.8712485998        3.0614902086        2.2934539428
 H          1.3869363899        2.0679061181        2.0074070022
 H          4.2888607797        1.3222846175        1.5705109620
 H          4.5493326788       -0.7536251336        2.6770638800
 H          3.8352141180       -3.1052388836        2.8943563076
 H          1.9999277979       -3.9763535716        1.4975544465
 C          0.5762127487       -2.6736654993       -0.3973348125
 H          0.4187298083       -3.7239332095       -0.1145075336
 C          1.0212620590       -2.6345034780       -1.8472477124
 C          1.9369165387       -3.7057360378       -2.3543330833
 C          0.5063492088       -3.6681415469       -2.8006156635
 H          0.2866919090       -3.3701095459       -3.8148103032
 H         -0.1690927316       -4.4153775471       -2.4090494943
 H          2.7048929489       -3.4314562274       -3.0613826729
 H          2.2312000083       -4.4825442286       -1.6646230440
 H          1.1638931294       -1.6312480377       -2.2277454414
 O         -0.3733596202       -0.0558232279       -1.4709462801
