  62
        -98.93989857
 C         -2.6369098791       -0.2150371909        0.5589533903
 C         -2.1812347017        0.2365372432       -0.7058501599
 C         -2.0082076936        1.6908919145       -0.8455765353
 C         -2.2602915670        2.4934653295        0.2028640241
 C         -2.1267699697        3.9883987744        0.1964484959
 C         -0.7373442703        4.4421891461        0.6615149261
 C          0.4217630667        3.7322877279       -0.0389595560
 H          0.4486527282        2.6828828266        0.2634415348
 H          1.3452211563        4.1892869325        0.3248862314
 C          0.3896094959        3.8100216760       -1.5713215290
 H          1.3989141879        4.0253484218       -1.9286975685
 H         -0.2521921520        4.6330334601       -1.8903319171
 C         -0.0564034837        2.5194560815       -2.2627729006
 H          0.4994403400        1.6709492357       -1.8516887939
 H          0.2034941064        2.5936362701       -3.3228109914
 C         -1.5558888066        2.2036861685       -2.1830831239
 H         -1.7630319034        1.4009866869       -2.8972177601
 H         -2.1336789352        3.0837717065       -2.4760714736
 H         -0.6524884522        4.2549451153        1.7344429428
 H         -0.6576889926        5.5186928117        0.4962894113
 H         -2.8769616996        4.3991724976        0.8749972103
 H         -2.3212031136        4.3559048461       -0.8094644424
 O         -2.6556819739        2.0216114295        1.4136667446
 C         -2.8190189729        0.6632819673        1.6286166630
 O         -3.1273945091        0.3655641781        2.8014790471
 O         -1.9484550085       -0.5229209475       -1.6813727841
 C         -2.8103354833       -1.6969950236        0.8598246154
 C         -1.5947516655       -2.4263885817        0.3447366716
 C         -1.6232874414       -3.4476403143       -0.5948338359
 C         -0.4443167110       -3.9869161934       -1.0814879430
 C          0.7837883757       -3.5156709176       -0.6523178853
 C          0.8184614209       -2.5156536390        0.3066148392
 C         -0.3590614771       -1.9940729064        0.8100952805
 H         -0.3196429432       -1.1901615099        1.5370183070
 N          2.0782574472       -1.9677166468        0.7072930098
 S          2.3103851259       -0.4826406626       -0.0793805383
 O          1.5402681495        0.5548308272        0.5754809615
 O          2.0796935420       -0.6795338846       -1.4867448326
 C          4.0502820525       -0.2157270175        0.2073112808
 C          4.9398417446       -1.0938913485       -0.3813972279
 C          6.2959796819       -0.9274585319       -0.1531279945
 C          6.7377413294        0.1092969180        0.6560615794
 C          5.8329917000        0.9829807291        1.2388950244
 C          4.4740986794        0.8199905373        1.0157834589
 H          3.7338327337        1.4752388070        1.4466578604
 H          6.1783628226        1.7888458606        1.8663868825
 H          7.7939645386        0.2377700505        0.8326705059
 H          7.0028734912       -1.6045375409       -0.6048604737
 H          4.5483755928       -1.8791444971       -1.0062505739
 H          2.0840973504       -1.7661607638        1.7003155170
 H          1.7071745542       -3.8963065872       -1.0568209811
 H         -0.4843568147       -4.7675333598       -1.8259754556
 H         -2.5693944824       -3.7928069452       -0.9791560893
 H         -2.8052556746       -1.7636527300        1.9609024370
 C         -4.1293845955       -2.2938639720        0.3963629047
 C         -5.3606658191       -1.4450017322        0.2940171440
 C         -4.7235645020       -1.9937818836       -0.9454262466
 H         -5.2301904565       -2.7915830913       -1.4686845827
 H         -4.1830277702       -1.3211607054       -1.5917628269
 H         -6.3007782903       -1.8631742779        0.6209511902
 H         -5.2559898291       -0.3892803101        0.4996471453
 H         -4.2717300301       -3.3001366194        0.7784917001
