  62
        -98.93679544
 C         -2.6251100232       -0.3869027996       -0.1926443396
 C         -2.0711764994       -1.1323929313        0.8743780466
 C         -1.3894994034       -2.3963168466        0.5163591431
 C         -1.3030079522       -2.7535535324       -0.7755288557
 C         -0.5839357251       -3.9275282675       -1.3838636852
 C          0.8786773739       -3.5651016366       -1.6982827971
 C          1.8695364076       -3.8976359014       -0.5858676973
 H          1.9155222048       -4.9811155807       -0.4533551132
 H          2.8548145364       -3.5596705644       -0.9148186381
 C          1.5555787678       -3.2441276562        0.7609294719
 H          2.4694942054       -3.2450451065        1.3592669250
 H          1.2809847044       -2.1982011677        0.6050427264
 C          0.4477731305       -3.9639046341        1.5434400108
 H          0.2435876473       -4.9309737702        1.0847152259
 H          0.7973517440       -4.1683022066        2.5582220448
 C         -0.8509298794       -3.1686098470        1.6919127843
 H         -0.7153050159       -2.4161577683        2.4762975375
 H         -1.6421206197       -3.8416169643        2.0440879729
 H          1.1862331413       -4.0974571365       -2.6009458816
 H          0.9253099887       -2.4932375828       -1.9110189616
 H         -0.6450541869       -4.8012516893       -0.7419928312
 H         -1.1009971496       -4.1463429442       -2.3205697421
 O         -1.8563790711       -2.0075330173       -1.7738214257
 C         -2.4982537015       -0.8167736937       -1.5157997323
 O         -2.9327391179       -0.2365063829       -2.5334312142
 O         -2.1221972751       -0.7828645695        2.0846345936
 C         -3.2512745554        0.9920834595       -0.0468708908
 C         -2.1867099592        2.0363373676       -0.3027091946
 C         -2.4477367283        3.1704886032       -1.0621873606
 C         -1.4373857706        4.0717518237       -1.3479024605
 C         -0.1434443390        3.8414041831       -0.9159571360
 C          0.1243024096        2.7144504033       -0.1473557005
 C         -0.9032609575        1.8456297496        0.1844118498
 H         -0.6785905856        0.9846512855        0.7947319652
 N          1.4236680697        2.4175221250        0.2970497093
 S          1.8451294517        0.7756023211        0.3333771307
 O          1.3021434134        0.0990829730       -0.8228781407
 O          1.4998999417        0.2449993055        1.6265584378
 C          3.6199530042        0.8958260563        0.2013558860
 C          4.3521808269        1.1713119202        1.3408904700
 C          5.7277718915        1.3035537731        1.2376145840
 C          6.3449440043        1.1586490288        0.0038566243
 C          5.5975276764        0.8785345848       -1.1301997132
 C          4.2208364344        0.7474405118       -1.0340738934
 H          3.5990739224        0.5226805414       -1.8860620547
 H          6.0799843125        0.7619990481       -2.0872224293
 H          7.4156559371        1.2615703438       -0.0740921769
 H          6.3121700906        1.5178137524        2.1177580378
 H          3.8280498347        1.2644519104        2.2777278265
 H          2.1331245012        2.9786505244       -0.1548947760
 H          0.6533321325        4.5218529418       -1.1752340186
 H         -1.6524946049        4.9474815257       -1.9411516162
 H         -3.4420439715        3.3297136084       -1.4515932620
 H         -3.9933998984        1.0768823333       -0.8544192104
 C         -3.9494023232        1.2524671885        1.2715260479
 C         -5.0617324332        2.2552390743        1.3243950432
 C         -5.3625077774        0.7936025999        1.4611786436
 H         -5.6492622220        0.4075360763        2.4273515092
 H         -5.8380015080        0.2905670268        0.6315898004
 H         -5.1447610927        2.8814699455        2.1991287524
 H         -5.3441273867        2.7436966275        0.4042904203
 H         -3.2885854658        1.1870589073        2.1256368107
