  62
        -98.93947813
 C          2.2808347700        0.8749935101        0.6385162606
 C          3.4298364201        0.9109570205       -0.1895338392
 C          4.4697157001       -0.0866459695        0.1085411006
 C          4.2826216801       -0.9656605799        1.1085041802
 C          5.2334059601       -2.0674223399        1.4752069700
 C          4.9041701304       -3.3630218397        0.7205222494
 C          4.7171210606       -3.1717001091       -0.7846475405
 H          3.8266053305       -2.5626262492       -0.9578289804
 H          4.5203670407       -4.1561778490       -1.2147833709
 C          5.9163703406       -2.5318685688       -1.4980010001
 H          6.1123860508       -3.0862859884       -2.4181291703
 H          6.8063707205       -2.6155042189       -0.8733422200
 C          5.7109729105       -1.0687863286       -1.8942397496
 H          4.7696951706       -0.9658624585       -2.4398309897
 H          6.5175506506       -0.7845761683       -2.5751993194
 C          5.7109076802       -0.0596224990       -0.7392989093
 H          5.7538838302        0.9427691311       -1.1747304089
 H          6.6000126402       -0.2053176292       -0.1227984592
 H          3.9793089204       -3.7762791899        1.1300386692
 H          5.7065897004       -4.0805834596        0.9013308093
 H          5.1485798200       -2.2506022703        2.5476895399
 H          6.2501680101       -1.7517440097        1.2494794502
 O          3.1659523900       -0.9746986003        1.8815024201
 C          2.1487919599       -0.0613253803        1.6691664203
 O          1.1915499598       -0.1746537307        2.4632208701
 O          3.6063412301        1.7252664209       -1.1336741689
 C          1.1137273899        1.8386185200        0.4888861308
 C          0.1800523001        1.4119616304       -0.6192398795
 C          0.5921474103        1.3754002609       -1.9473691794
 C         -0.2888390896        0.9879707211       -2.9400791297
 C         -1.5904753096        0.6344323009       -2.6317500300
 C         -2.0148858198        0.6752999304       -1.3084124400
 C         -1.1273538199        1.0612979001       -0.3135978198
 H         -1.4603060801        1.0691101997        0.7136329002
 N         -3.3483814298        0.3715063101       -0.9818973703
 S         -3.6985083599       -0.3842050304        0.4858661393
 O         -3.6133848501        0.5909587792        1.5435185697
 O         -2.8977159798       -1.5791950604        0.6358348990
 C         -5.4080409998       -0.8103831805        0.2093666290
 C         -6.3563412599        0.1910190294        0.3039160892
 C         -7.6855493099       -0.1203505407        0.0670505089
 C         -8.0431314197       -1.4205669606       -0.2583824616
 C         -7.0809779796       -2.4150912705       -0.3474080019
 C         -5.7490454096       -2.1099380004       -0.1132258116
 H         -4.9675806796       -2.8511423503       -0.1635990517
 H         -7.3621002594       -3.4254559304       -0.5972630723
 H         -9.0786356396       -1.6608053306       -0.4408048819
 H         -8.4366133500        0.6497114392        0.1381257691
 H         -6.0321627601        1.1836746893        0.5692462796
 H         -3.8391170196       -0.0785042596       -1.7432496706
 H         -2.2756191794        0.3327315011       -3.4095709002
 H          0.0430063906        0.9574559016       -3.9670272997
 H          1.6100255703        1.6396662411       -2.1888194292
 H          0.5538674998        1.7694605896        1.4322187907
 C          1.5459771898        3.2801892502        0.2967332814
 C          0.5696885696        4.3716636499        0.6109343817
 C          1.7565461495        4.1480204597        1.4986119417
 H          2.5607879694        4.8680032298        1.4792675921
 H          1.5904264794        3.7045150394        2.4701388015
 H          0.5564737696        5.2478627902       -0.0187401580
 H         -0.4021794904        4.0796850397        0.9810715114
 H          2.2117991999        3.4225099005       -0.5436458785
