  62
        -98.94519287
 C          2.6156154097        1.1459896695        0.3132987207
 C          2.6378448799        0.3748362996       -0.8741790694
 C          3.3748828899       -0.8951668704       -0.7980280494
 C          3.9696714797       -1.2459340805        0.3567489406
 C          4.7007229997       -2.5359716505        0.5886630805
 C          3.7578699697       -3.6163926606        1.1368865903
 C          2.4567424798       -3.7611968405        0.3466176001
 H          1.8836632097       -4.5702519406        0.8053627600
 H          1.8625969897       -2.8501756505        0.4573908802
 C          2.6509585299       -4.0561846103       -1.1472895699
 H          3.6626183599       -4.4237629903       -1.3236376098
 H          1.9600589999       -4.8500702703       -1.4386254100
 C          2.3755150800       -2.8673288202       -2.0701454998
 H          2.3283903401       -3.2392321701       -3.0972324898
 H          1.3963874900       -2.4393490203       -1.8354309698
 C          3.4184740800       -1.7426291002       -2.0379763395
 H          4.4157371500       -2.1621489202       -2.1851754795
 H          3.2011993300       -1.0667414201       -2.8701866695
 H          3.5043919196       -3.3645662607        2.1693217903
 H          4.2890842797       -4.5697464906        1.1404884202
 H          5.1462307098       -2.8682160404       -0.3467539395
 H          5.4939553897       -2.3560944906        1.3161332906
 O          3.9259422496       -0.4783008207        1.4760046307
 C          3.2354064396        0.7234773293        1.4882442507
 O          3.2423754195        1.3100280792        2.5901734408
 H          0.3023066196        0.6228308893        1.4455964005
 C         -0.2480136403        1.1938997894        0.7063550505
 C          0.4038027098        2.2129692595        0.0220754207
 C         -0.3119614802        2.9389646196       -0.9198591393
 C         -1.6380883901        2.6350732896       -1.1770927995
 C         -2.2794548702        1.6147548296       -0.4996977497
 C         -1.5748615503        0.8868445094        0.4507430203
 N         -2.2210953803       -0.1417957406        1.1605722301
 S         -3.0428786202       -1.3104194305        0.2758836799
 O         -3.0761662103       -2.4755352206        1.1336502098
 O         -2.4640568301       -1.4939962204       -1.0346516001
 C         -4.6886329702       -0.6457151205        0.1360310098
 C         -5.2818577201       -0.5284208604       -1.1055526602
 C         -6.5660299701       -0.0123976204       -1.1881359403
 C         -7.2301758902        0.3741414795       -0.0341348003
 C         -6.6211531303        0.2469263093        1.2056040098
 C         -5.3383358103       -0.2691543007        1.2953284698
 H         -4.8301399204       -0.3860098708        2.2378916799
 H         -7.1405448904        0.5487525792        2.1008370598
 H         -8.2282938202        0.7772266895       -0.1013773303
 H         -7.0410505900        0.0869682397       -2.1509013703
 H         -4.7232894100       -0.8347526303       -1.9757487602
 H         -1.6349709504       -0.5785420207        1.8575810301
 H         -3.3094720402        1.3716764996       -0.7032412998
 H         -2.1801471101        3.2014547497       -1.9188550995
 H          0.1710668399        3.7345344197       -1.4625383192
 C          1.8577153697        2.4617027095        0.3453562208
 H          1.9186194996        2.8227469793        1.3825889009
 C          2.5207875298        3.4749112596       -0.5633817690
 C          2.3978452298        4.9399342595       -0.2741950488
 C          3.7031327198        4.2388867995       -0.0506853388
 H          4.5209679098        4.4380653896       -0.7267510487
 H          4.0152992597        4.0446850894        0.9653983012
 H          2.3222813599        5.6249326496       -1.1050659188
 H          1.8254506597        5.2319153994        0.5931756612
 H          2.5427477799        3.1540897997       -1.5983728290
 O          2.0734051200        0.7261282997       -1.9424515894
