  62
        -98.93971353
 C          2.4236945655       -0.2439201241        0.3910847370
 C          3.6140810058       -1.0059652856        0.3089053342
 C          4.7001990473       -0.4195803781       -0.4868568452
 C          4.4983197733        0.7574137164       -1.1072059492
 C          5.5313541351        1.4897789758       -1.9127046149
 C          6.3267304263        2.4690478313       -1.0380304839
 C          6.8610377385        1.8494248442        0.2532604549
 H          7.4306283258        2.6224936185        0.7735389234
 H          6.0186675909        1.5833066262        0.8958033866
 C          7.7480873983        0.6140803196        0.0448652529
 H          8.6287352505        0.7032251758        0.6844382105
 H          8.0996359256        0.5800201465       -0.9869345662
 C          7.0765673256       -0.7151548872        0.3949568820
 H          6.6405939548       -0.6531193278        1.3952360613
 H          7.8481752181       -1.4891942877        0.4220133490
 C          5.9880539759       -1.1892113037       -0.5763566529
 H          6.3747428067       -1.1764885174       -1.5974767618
 H          5.7379669548       -2.2221993933       -0.3169903243
 H          7.1578832064        2.8608102541       -1.6271607372
 H          5.6743577580        3.3041769673       -0.7728061236
 H          6.2038428879        0.7686738523       -2.3732383449
 H          5.0205466038        2.0496263801       -2.6979302767
 O          3.3305741669        1.4445575409       -1.0314023169
 C          2.2668116995        0.9704465355       -0.2772775529
 O          1.2659650358        1.7111727145       -0.2839061935
 O          3.7599337941       -2.1240862150        0.8727664178
 C          1.2618647676       -0.7933756101        1.2011261481
 C          0.1072694750       -1.0694992129        0.2699629312
 C          0.2657644937       -2.0498365502       -0.7069413980
 C         -0.7479789159       -2.3246742006       -1.6037067004
 C         -1.9406202061       -1.6237988065       -1.5519517569
 C         -2.1097312919       -0.6461046807       -0.5819537821
 C         -1.0939172545       -0.3831026785        0.3307393132
 H         -1.2389645312        0.3826032080        1.0764521609
 N         -3.3063127794        0.0907740810       -0.5377549490
 S         -4.7571016326       -0.7463630069       -0.7436200537
 O         -4.7663239307       -1.9346651402        0.0807274122
 O         -4.9706097346       -0.9596706700       -2.1532740324
 C         -5.9258249944        0.4493162941       -0.1284044808
 C         -6.3472351806        0.3691680191        1.1853475984
 C         -7.2351419689        1.3200449608        1.6633345511
 C         -7.6814713655        2.3305947147        0.8250104608
 C         -7.2491760524        2.3977725690       -0.4912352161
 C         -6.3621487991        1.4498255775       -0.9759272412
 H         -6.0056380314        1.4572170390       -1.9927126549
 H         -7.6001033895        3.1839262047       -1.1401207139
 H         -8.3728201857        3.0690746978        1.1991739901
 H         -7.5751148469        1.2692392788        2.6851988277
 H         -5.9814885119       -0.4390215732        1.7983184161
 H         -3.3461147727        0.7063723010        0.2628384154
 H         -2.7401462936       -1.8252063023       -2.2466087540
 H         -0.6109456780       -3.0895903584       -2.3536692040
 H          1.2006440606       -2.5919031369       -0.7536288701
 H          1.6142622943       -1.7561049946        1.5981933959
 C          0.9238250411        0.1179236281        2.3611418498
 C          0.1542601210       -0.4195975588        3.5296653127
 C          1.6096209990       -0.0940708709        3.6761631246
 H          1.8892011147        0.7722348615        4.2567619001
 H          2.3135218152       -0.9105604425        3.7445221829
 H         -0.5650078547        0.2227612435        4.0147468892
 H         -0.1334982925       -1.4597261290        3.5000250970
 H          0.7423649891        1.1416218037        2.0545849076
