  62
        -98.94023938
 C          1.8856117527        0.7999503989       -0.6900238807
 C          3.2686392026        1.1134224202       -0.6876305483
 C          4.1902575410       -0.0089811651       -0.4667147018
 C          3.6880968952       -1.2407029926       -0.2659993316
 C          4.5069534772       -2.4659890388        0.0170237950
 C          4.6984188706       -2.6697130747        1.5262908889
 C          5.1684076454       -1.4155360720        2.2632235944
 H          4.3789942397       -0.6612776835        2.2233030858
 H          5.3003856520       -1.6852990483        3.3133306360
 C          6.4725439838       -0.8125939007        1.7225326907
 H          7.1175912206       -0.5600357069        2.5667752591
 H          7.0018933224       -1.5528820738        1.1214619975
 C          6.2894443040        0.4671944402        0.9043682835
 H          5.6796378583        1.1781119303        1.4678912204
 H          7.2730415428        0.9227693827        0.7618486503
 C          5.6630231704        0.2891998002       -0.4845530866
 H          6.2058178639       -0.4811223139       -1.0364456856
 H          5.7714421648        1.2368238524       -1.0205276508
 H          3.7448661770       -2.9827154125        1.9579252645
 H          5.4201950342       -3.4744472810        1.6775510392
 H          3.9849318731       -3.3318466726       -0.3938028364
 H          5.4740492581       -2.3712614523       -0.4730442818
 O          2.3576632182       -1.5003733744       -0.2491182983
 C          1.4191977411       -0.4920395495       -0.4420830738
 O          0.2419079271       -0.8835939478       -0.3672573889
 O          3.7113256035        2.2807496934       -0.8591222884
 C          0.9064240208        1.9397548203       -0.9087770592
 C         -0.2008324689        1.8765080130        0.1129995102
 C          0.1374374520        1.9437839444        1.4624310903
 C         -0.8326513366        1.8624627167        2.4419070210
 C         -2.1671846488        1.7272248746        2.0997517956
 C         -2.5167980416        1.6597691541        0.7582556202
 C         -1.5372746317        1.7389471137       -0.2261203727
 H         -1.8260080302        1.6647280175       -1.2629375595
 N         -3.8748497714        1.5490774663        0.4001615556
 S         -4.8062763337        0.2607551101        0.9175638779
 O         -6.1616712377        0.5896190721        0.5372628763
 O         -4.5748257777        0.0409272572        2.3223566963
 C         -4.2675472919       -1.1565855418       -0.0260941547
 C         -5.1746995026       -1.7966779784       -0.8485003153
 C         -4.7544510587       -2.8881086694       -1.5909126263
 C         -3.4366028158       -3.3127346824       -1.5081809430
 C         -2.5376441499       -2.6557315431       -0.6827019358
 C         -2.9540998831       -1.5697784370        0.0709558355
 H         -2.2569917949       -1.0459050792        0.7048850984
 H         -1.5037794237       -2.9561670570       -0.6249916075
 H         -3.1064315106       -4.1580444875       -2.0916092271
 H         -5.4518792959       -3.4003775612       -2.2342110525
 H         -6.1860609341       -1.4255930878       -0.8884763934
 H         -4.0457984919        1.7054402069       -0.5833921874
 H         -2.9343076560        1.6496868242        2.8521718928
 H         -0.5515542216        1.9096645607        3.4834855688
 H          1.1794770365        2.0494621173        1.7337919133
 H          1.4981179106        2.8488728288       -0.7084328443
 C          0.4026317875        2.0614240181       -2.3393421966
 C          1.2284951129        1.5799778074       -3.4934133993
 C         -0.0429574892        0.8729592652       -3.1364279760
 H         -0.8918075854        0.9854171344       -3.7954873369
 H          0.0191900001       -0.0956152207       -2.6660758755
 H          1.2520692676        2.1791376393       -4.3913045337
 H          2.1662175626        1.0922985341       -3.2703184531
 H         -0.1439771257        2.9865783875       -2.4969180820
