  62
        -98.94340893
 C         -1.8653208789       -0.2664261946       -0.2351881699
 C         -2.9734435538       -0.4603516664       -1.0930338764
 C         -4.2847197476       -0.5530981461       -0.4377407060
 C         -4.3560085098       -0.4708197535        0.9037473921
 C         -5.6299154344       -0.5040006459        1.6965765683
 C         -6.1871749002        0.9096748555        1.9146216916
 C         -6.2639022845        1.7472042480        0.6381308092
 H         -6.6987534161        2.7120372937        0.9078383515
 H         -5.2511711677        1.9405571639        0.2772548946
 C         -7.0897742444        1.1119862888       -0.4891602766
 H         -7.7393335457        1.8762303284       -0.9211503440
 H         -7.7343088622        0.3318272250       -0.0824939770
 C         -6.2581335868        0.5345423321       -1.6359736048
 H         -5.5446521487        1.2851070773       -1.9854373808
 H         -6.9326350917        0.3127958224       -2.4673676779
 C         -5.4864587474       -0.7524379908       -1.3180452762
 H         -6.1646404536       -1.4905143212       -0.8847092291
 H         -5.1028061017       -1.1512266647       -2.2619018755
 H         -7.1817164101        0.8238934055        2.3561622950
 H         -5.5424717940        1.4295818165        2.6268623124
 H         -6.3612554018       -1.1172592441        1.1735944958
 H         -5.4184584565       -0.9553479387        2.6673987663
 O         -3.2669844098       -0.3008129192        1.6961015585
 C         -1.9960559735       -0.1863412058        1.1515048095
 O         -1.0895653947       -0.0239077046        1.9889906131
 O         -2.8696303558       -0.5578858465       -2.3462660336
 C         -0.4797649091       -0.1500201534       -0.8406342408
 C          0.4414141853       -1.2179407443       -0.3039151823
 C         -0.0460294004       -2.5076903082       -0.1082833212
 C          0.7724212850       -3.5077809094        0.3780465484
 C          2.1033800427       -3.2511676499        0.6562805922
 C          2.6069321981       -1.9745723448        0.4447504267
 C          1.7763903374       -0.9661633977       -0.0260350776
 H          2.1879508518        0.0175137368       -0.1802776960
 N          3.9515876259       -1.6801523357        0.7158698058
 S          4.8245141804       -0.7387666309       -0.3580843285
 O          4.3647479036       -0.9131669562       -1.7158410613
 O          6.2075308216       -1.0869800952       -0.1075235476
 C          4.5575471541        0.9388167335        0.1733371466
 C          4.4590032190        1.9331163391       -0.7795278264
 C          4.3061799578        3.2473717652       -0.3654350913
 C          4.2546004254        3.5422837778        0.9880180342
 C          4.3561521078        2.5317746368        1.9323454902
 C          4.5142202525        1.2167399283        1.5251922276
 H          4.5947765352        0.4081972112        2.2322548810
 H          4.3125407573        2.7646575265        2.9841450578
 H          4.1328959759        4.5649897862        1.3085488544
 H          4.2271700483        4.0340296574       -1.0991560867
 H          4.4917916500        1.6578284894       -1.8216547843
 H          4.4969586176       -2.4617985687        1.0493735123
 H          2.7461664503       -4.0323409313        1.0331588150
 H          0.3740771833       -4.4990894675        0.5346771209
 H         -1.0826912110       -2.7154962715       -0.3362267666
 H         -0.6142643435       -0.3324393479       -1.9181811921
 C          0.0527624593        1.2555125442       -0.6494563826
 C          0.9584751512        1.8748122107       -1.6700338543
 C         -0.4580701092        2.3458272088       -1.5415664579
 H         -0.6418643094        3.3198146730       -1.1138835420
 H         -1.1638847225        2.0652374527       -2.3099248834
 H          1.7468773933        2.5268097353       -1.3255563614
 H          1.2233539666        1.2801642385       -2.5316725381
 H          0.2169864412        1.4968327704        0.3949747638
