  62
        -98.93939996
 C         -0.0878145657       -1.9096651586        0.4998072777
 C         -0.8214360343       -1.7626673174       -0.7008984333
 C         -2.2198108128       -1.3359161583       -0.5494465829
 C         -2.7186893191       -1.1090068345        0.6791747870
 C         -4.1539764706       -0.8147707401        1.0331793474
 C         -4.7484280314        0.5076713401        0.5157320630
 C         -5.4634989127        0.4020221434       -0.8361213872
 H         -5.7936581954       -0.6269891628       -0.9831279741
 H         -6.3644793741        1.0181011527       -0.8069209316
 C         -4.6465749986        0.8583339598       -2.0484035221
 H         -5.1631058428        0.5173665018       -2.9482137005
 H         -4.6254193461        1.9496869972       -2.0749412717
 C         -3.1987340491        0.3693680022       -2.0932215330
 H         -2.5950128021        0.9307658011       -1.3759315844
 H         -2.7921906244        0.5946724333       -3.0809533821
 C         -3.0249215490       -1.1332588151       -1.7995532700
 H         -3.9936294053       -1.6242568319       -1.7150032754
 H         -2.4677528568       -1.6117727357       -2.6075215769
 H         -5.4740008140        0.8381749597        1.2607535340
 H         -3.9619653620        1.2565745168        0.4659941479
 H         -4.7690632853       -1.6480018789        0.6841939911
 H         -4.1865667394       -0.8153537477        2.1248877498
 O         -1.9533076069       -1.1928624458        1.8039195188
 C         -0.6285679999       -1.5906037307        1.7440427847
 O         -0.0499321730       -1.6227901363        2.8505538832
 H          1.4250542225        0.2117094929        0.3833920408
 C          2.1269131766       -0.2160179229       -0.3173062902
 C          2.2055721067       -1.5978208187       -0.4381851792
 C          3.1142800797       -2.1360131131       -1.3402348339
 C          3.9168582225       -1.3059035618       -2.1032267248
 C          3.8481766295        0.0675195876       -1.9664193807
 C          2.9454900402        0.6168789408       -1.0616697390
 N          2.8471885743        2.0060415921       -0.9101877910
 S          2.4271284565        2.7089575320        0.5442652919
 O          2.9806941925        4.0445576161        0.4627694959
 O          2.8500968531        1.9150436430        1.6730655407
 C          0.6541662410        2.8430746961        0.4793290013
 C          0.1137876206        3.6423303603       -0.5094552496
 C         -1.2577245254        3.8267152107       -0.5492992954
 C         -2.0627376838        3.2146791394        0.3997368113
 C         -1.5078420071        2.4033750907        1.3776793291
 C         -0.1350468072        2.2144910308        1.4205592156
 H          0.3277937978        1.5915553849        2.1720615686
 H         -2.1296424983        1.9143818932        2.1117775591
 H         -3.1290374464        3.3799385839        0.3807340434
 H         -1.6956012777        4.4496819363       -1.3123360569
 H          0.7766573334        4.1156142158       -1.2143379041
 H          3.5357108876        2.5447141590       -1.4140988586
 H          4.4826730008        0.7137893684       -2.5535400064
 H          4.6138995322       -1.7357593264       -2.8065305389
 H          3.1935361493       -3.2050573348       -1.4490411929
 C          1.3310289752       -2.4433002454        0.4548342607
 H          1.7228003335       -2.3575618228        1.4801236998
 C          1.3063925491       -3.9076443957        0.0630668704
 C          2.3497687397       -4.8509508447        0.5791879885
 C          0.9470922111       -4.9265843564        1.1008230796
 H          0.3310769477       -5.7645255949        0.8108819019
 H          0.7504617610       -4.5657422381        2.1003318330
 H          3.1103721943       -4.4477822823        1.2308881622
 H          2.6964244847       -5.6423433429       -0.0682760562
 H          0.9260623546       -4.0609606528       -0.9405123429
 O         -0.3444633086       -2.0050066007       -1.8400047685
