  62
        -98.95136382
 C         -1.8334446818       -1.2380721246       -0.2882128849
 C         -2.9139134846       -0.5404387666        0.2986121625
 C         -3.2120881616        0.7746941967       -0.2769054477
 C         -2.4804261897        1.2336132232       -1.3088345299
 C         -2.6497587517        2.5635034571       -1.9908555903
 C         -1.9233383216        3.7079555879       -1.2704430322
 C         -2.5924436032        4.1879958786        0.0181912945
 H         -2.1246917978        5.1373364635        0.2870398729
 H         -3.6492181632        4.3843661493       -0.1691136516
 C         -2.4448845204        3.2191388295        1.1998182234
 H         -1.6244068771        2.5254078568        0.9978146660
 H         -2.1650307382        3.7796468400        2.0956410876
 C         -3.7101870056        2.4297088242        1.5386525505
 H         -4.4859498179        3.1161119817        1.8869024335
 H         -3.4744235661        1.7446972147        2.3574306010
 C         -4.2767915525        1.6026941906        0.3772618496
 H         -5.0289559317        0.9194562058        0.7802081697
 H         -4.7529263886        2.2569726759       -0.3526695572
 H         -0.9033492506        3.3853135234       -1.0445046940
 H         -1.8656097900        4.5506072154       -1.9638183880
 H         -2.2233331669        2.4584419445       -2.9907768850
 H         -3.7095802609        2.8018041692       -2.0859831521
 O         -1.4796662741        0.5123457121       -1.8755015662
 C         -1.0984592202       -0.7092543555       -1.3484446989
 O         -0.1157883387       -1.2293654323       -1.9138172032
 H         -0.2277697362       -0.4426127922        1.4734851327
 C          0.4799255070       -1.2447388858        1.3221571002
 C          0.0625328518       -2.4372602339        0.7446838582
 C          0.9964982931       -3.4529951367        0.5826636274
 C          2.3154848781       -3.2617321950        0.9585813099
 C          2.7373475350       -2.0499207977        1.4746039570
 C          1.8072945954       -1.0325359715        1.6515044648
 N          2.1768989006        0.2430638501        2.1323513083
 S          2.0428359476        1.4970602915        1.0220362657
 O          2.5292450980        2.6700103794        1.7172334108
 O          0.6982267516        1.5678616636        0.5156249369
 C          3.2007058511        1.0500563133       -0.2590358763
 C          2.8297840084        0.1386358103       -1.2270552425
 C          3.7771252639       -0.2630004368       -2.1576071364
 C          5.0656079746        0.2449065585       -2.1039670582
 C          5.4205116713        1.1606995203       -1.1244474174
 C          4.4822769958        1.5634383139       -0.1887553980
 H          4.7093856994        2.2745339230        0.5892866344
 H          6.4221244603        1.5576584834       -1.0854260341
 H          5.7959433292       -0.0744143503       -2.8306590319
 H          3.4925859275       -0.9746787122       -2.9159967616
 H          1.8198768794       -0.2415903133       -1.2584078666
 H          3.1028390016        0.2699427873        2.5385778383
 H          3.7727244506       -1.8884903200        1.7347797685
 H          3.0293070995       -4.0600594338        0.8248841754
 H          0.6928450370       -4.3933819610        0.1523290690
 C         -1.3804896397       -2.5541278071        0.3168430101
 H         -2.0026026286       -2.6969112473        1.2134946183
 C         -1.6312091586       -3.7015520402       -0.6396955746
 C         -1.9501750492       -5.0700779659       -0.1177956876
 C         -3.0214986393       -4.2462651817       -0.7644999184
 H         -3.3772185676       -4.5329777863       -1.7426482959
 H         -3.7819070934       -3.8063867433       -0.1357536004
 H         -1.9914219660       -5.2002868096        0.9530532311
 H         -1.5730393405       -5.9277162687       -0.6541973404
 H         -1.0419338102       -3.6205462694       -1.5462634287
 O         -3.5890662006       -0.9921486809        1.2643646350
