  62
        -98.94521434
 C         -2.1495819928       -1.4703153152       -0.0251133296
 C         -1.8838205624       -0.4292192527       -0.9472703911
 C         -2.8273897528        0.6987598657       -0.9271935336
 C         -3.8467948976        0.6949996716       -0.0494977941
 C         -4.8297835009        1.8145263711        0.1296411208
 C         -4.3431554786        2.8150927152        1.1879757969
 C         -2.9001814547        3.2788695064        0.9867137187
 H         -2.6820503533        4.0062222843        1.7714843189
 H         -2.2274997943        2.4312676223        1.1374528297
 C         -2.6225220549        3.9064558220       -0.3861106530
 H         -3.5620798429        4.1981209174       -0.8568689504
 H         -2.0373201406        4.8172040953       -0.2440880316
 C         -1.8324150256        3.0103634719       -1.3410990001
 H         -0.9387806875        2.6344560464       -0.8375098429
 H         -1.5056967017        3.6205804387       -2.1871347551
 C         -2.5956008163        1.8097057511       -1.9125499964
 H         -3.5412500654        2.1423426396       -2.3455035314
 H         -1.9845598143        1.3785144219       -2.7108544572
 H         -5.0101940992        3.6791138462        1.1763805433
 H         -4.4173157139        2.3424712779        2.1701554718
 H         -4.9767457361        2.3195672567       -0.8230640737
 H         -5.7806276541        1.3891733770        0.4550803956
 O         -4.0673410571       -0.3211266895        0.8233733372
 C         -3.2282818822       -1.4203833695        0.8613313165
 O         -3.5416376127       -2.2760197434        1.7133138181
 H          1.0948258077       -2.0985609330       -1.2539212308
 C          1.1763884932       -1.9726698236       -0.1863867456
 C          0.0872083657       -2.2457182737        0.6252488882
 C          0.2095293553       -2.0441516806        1.9976311083
 C          1.3993290803       -1.5995065472        2.5418565528
 C          2.4882182521       -1.3337079579        1.7291786660
 C          2.3686371890       -1.5080833010        0.3571012283
 N          3.4600442953       -1.2388468201       -0.4849831791
 S          4.4113566108        0.1128769099       -0.2416676246
 O          5.1601446098        0.2623026364       -1.4685214393
 O          5.1899822523       -0.0602108131        0.9596435079
 C          3.2893178021        1.4843191312       -0.0440418071
 C          2.9808669419        1.9482955381        1.2185666125
 C          2.0867640156        2.9995722580        1.3456075974
 C          1.5251341100        3.5698676402        0.2142426909
 C          1.8504031023        3.0965357673       -1.0480821018
 C          2.7352191702        2.0396328314       -1.1804370770
 H          3.0159249777        1.6489579205       -2.1452207354
 H          1.4143020652        3.5434442205       -1.9269517831
 H          0.8309003991        4.3892786200        0.3154531047
 H          1.8322441208        3.3704983418        2.3255137218
 H          3.4505802450        1.4922534654        2.0741479889
 H          3.2501641195       -1.3544565419       -1.4655373301
 H          3.4278738195       -1.0021724863        2.1393026157
 H          1.4836289605       -1.4605246233        3.6091165651
 H         -0.6457058154       -2.2388800864        2.6302649576
 C         -1.2441842302       -2.6887282718        0.0691964091
 H         -1.7127592567       -3.3540516663        0.8065290281
 C         -1.1468868353       -3.4229709741       -1.2515033871
 C         -0.6029529778       -4.8188466955       -1.2745353678
 C         -2.0628933370       -4.5788330929       -1.5128127306
 H         -2.4520726903       -4.7121315079       -2.5111635775
 H         -2.7604860289       -4.8502229888       -0.7337835197
 H         -0.3077472324       -5.2534104989       -0.3313601571
 H          0.0113953849       -5.1213608434       -2.1088664935
 H         -0.9211908750       -2.7759257147       -2.0897085253
 O         -0.9168884876       -0.4309699137       -1.7535505117
