  62
        -98.94114849
 C         -1.6556598132       -0.4455389309        0.9464756446
 C         -2.8867994248       -1.0335449421        0.5667842353
 C         -4.0238678236       -0.1094172802        0.4276132175
 C         -3.8462985298        1.2047944743        0.6494707097
 C         -4.9035833694        2.2565069126        0.4818465083
 C         -4.8922550684        2.8359859567       -0.9396700509
 C         -4.8827934242        1.7748517742       -2.0401134539
 H         -4.9079060467        2.2994431623       -2.9977515218
 H         -3.9386344483        1.2266394358       -1.9991577408
 C         -6.0491965003        0.7792175210       -1.9725211508
 H         -6.4552436147        0.6466427687       -2.9776188170
 H         -6.8485042732        1.1859013110       -1.3518543711
 C         -5.6671296622       -0.6104829549       -1.4597304073
 H         -6.5023027641       -1.2876132936       -1.6581895275
 H         -4.8045990633       -0.9827444374       -2.0182894596
 C         -5.3481779520       -0.7040716841        0.0376756436
 H         -6.1577303743       -0.2536994448        0.6155033480
 H         -5.2889924249       -1.7648888519        0.2979314875
 H         -3.9993726741        3.4548203492       -1.0541162498
 H         -5.7677307177        3.4771534821       -1.0576547447
 H         -5.8775062588        1.8231192541        0.7008688559
 H         -4.7052187095        3.0596514652        1.1935068289
 O         -2.6505722513        1.7350483873        1.0111605714
 C         -1.5343309551        0.9317844299        1.1612543314
 O         -0.5030317974        1.5500099316        1.4922254837
 H          1.9860748182       -0.2708679647        0.2838939597
 C          1.5368353534       -0.9214292972       -0.4506955678
 C          0.3042310176       -1.5010842616       -0.1878622580
 C         -0.2744347309       -2.3174061216       -1.1539924073
 C          0.3772945199       -2.5488610850       -2.3511752779
 C          1.6192758914       -1.9910027188       -2.5993620585
 C          2.2037766409       -1.1699835708       -1.6420842053
 N          3.4501976964       -0.5751227088       -1.8741111260
 S          4.5302555160       -0.3130921503       -0.6255830495
 O          5.8138722120       -0.1971689133       -1.2843408207
 O          4.4290822713       -1.3328659454        0.3917834508
 C          4.0735272533        1.2760915732        0.0312128839
 C          3.8432907770        1.4212543520        1.3842389092
 C          3.5041724295        2.6710819691        1.8770506286
 C          3.4040661051        3.7488038229        1.0116705711
 C          3.6433155456        3.5878735237       -0.3447152914
 C          3.9824921172        2.3407981197       -0.8430104215
 H          4.1785708152        2.1772393806       -1.8896486804
 H          3.5632713491        4.4297848519       -1.0135604065
 H          3.1353375642        4.7192407934        1.3981686913
 H          3.3128911742        2.7971676062        2.9306191499
 H          3.9266077835        0.5557417638        2.0232212421
 H          3.9102685016       -0.8565075412       -2.7270737143
 H          2.1327793033       -2.1852764922       -3.5288655813
 H         -0.0813233881       -3.1811293399       -3.0966264918
 H         -1.2408732774       -2.7565633046       -0.9605992265
 C         -0.3724370616       -1.2388264787        1.1364712177
 H          0.2927892143       -0.5881486756        1.7204108428
 C         -0.5622742106       -2.5332302348        1.9040425132
 C          0.6459032039       -3.2070211679        2.4794439113
 C         -0.3482641768       -2.5463218660        3.3859719843
 H         -0.9868851830       -3.1703406107        3.9931247859
 H         -0.0673632212       -1.6170566320        3.8603371120
 H          0.6896745864       -4.2853667749        2.4640107360
 H          1.6041499834       -2.7296805620        2.3324795850
 H         -1.3489933674       -3.1609310617        1.5079866594
 O         -3.0573302995       -2.2626402322        0.3496870388
