  62
        -98.94596462
 C         -1.5763557172       -1.5715609681       -0.2994512968
 C         -1.4229232204       -0.2060120078       -0.6420152999
 C         -2.6684896657        0.5681004988       -0.7475599914
 C         -3.8469401184       -0.0447012687       -0.5344542530
 C         -5.1813872586        0.6420413762       -0.5392742934
 C         -5.5535199008        1.1342182317        0.8667762682
 C         -4.4395456151        1.9152302252        1.5645193125
 H         -3.5995110627        1.2437044038        1.7568601701
 H         -4.8257913203        2.2322691493        2.5357680038
 C         -3.9400733287        3.1412972333        0.7875083786
 H         -3.8501954462        3.9807823845        1.4801082555
 H         -4.6737675642        3.4230576415        0.0313086157
 C         -2.5730579639        2.9599840577        0.1247428072
 H         -1.8535408232        2.5880297140        0.8583499527
 H         -2.2266909619        3.9416189898       -0.2079279947
 C         -2.5424338776        2.0254387005       -1.0905599460
 H         -1.5638480125        2.1324670315       -1.5668997973
 H         -3.3125917939        2.3224304140       -1.8050718569
 H         -5.8000257731        0.2661928202        1.4828175031
 H         -6.4453438285        1.7588506861        0.7891597542
 H         -5.9358031478       -0.0705748231       -0.8767713213
 H         -5.1512419167        1.4799500186       -1.2328921812
 O         -3.9536477086       -1.3643431561       -0.2303670652
 C         -2.8248061857       -2.1550773242       -0.0877461931
 O         -3.0609368926       -3.3398012621        0.2259382384
 O         -0.3095540180        0.3407113100       -0.8459198948
 C         -0.3444766697       -2.4430257540       -0.1241704428
 C          0.5166559200       -1.8343942897        0.9549609138
 C         -0.0075977712       -1.7357259311        2.2422377976
 C          0.7192046823       -1.1475009851        3.2583089535
 C          1.9794911055       -0.6315960703        3.0088118258
 C          2.5118559028       -0.7281675273        1.7291581040
 C          1.7858747471       -1.3361425835        0.7130745626
 H          2.2278023834       -1.4035093112       -0.2659644312
 N          3.7918375783       -0.2295799970        1.4536302759
 S          4.1785348886        0.4206906449       -0.0323544404
 O          4.3197665198       -0.6252489579       -1.0148124641
 O          5.3787564469        1.1895715125        0.2310831407
 C          2.8707421327        1.5411266269       -0.4956078996
 C          2.4566481238        1.5711274612       -1.8099222543
 C          1.5059256866        2.5015383857       -2.1938779309
 C          0.9842940172        3.3792387069       -1.2586000118
 C          1.4023084417        3.3299159532        0.0612600220
 C          2.3590893792        2.4072984129        0.4487393278
 H          2.7041530562        2.3545306544        1.4688701293
 H          0.9827778653        4.0060609584        0.7893117922
 H          0.2419815262        4.1026624167       -1.5586183349
 H          1.1691629210        2.5312352602       -3.2182104426
 H          2.8788522911        0.8617392132       -2.5040973000
 H          4.2338006783        0.2715436192        2.2096604879
 H          2.5472273327       -0.1629011593        3.7981873046
 H          0.3001091595       -1.0804261992        4.2510571957
 H         -0.9993889322       -2.1253973746        2.4301373006
 H         -0.7050244726       -3.4196635184        0.2286301558
 C          0.3708099941       -2.6334486918       -1.4440988561
 C          1.2913612902       -3.8003253678       -1.6320377524
 C         -0.0299852135       -3.7657882220       -2.3386520567
 H         -0.0414238783       -3.6010887257       -3.4056719283
 H         -0.8148303256       -4.4214894165       -1.9900318494
 H          2.1925200644       -3.6574141070       -2.2093419741
 H          1.4056842954       -4.4837255905       -0.8040083730
 H          0.6366053657       -1.6957739858       -1.9186248475
