  62
        -98.93101402
 C         -1.1754713569       -1.7935799033        0.2194125319
 C         -2.1045816314       -1.2580389991        1.1410752450
 C         -3.0642481245       -0.2744486868        0.6172920932
 C         -2.9927543930        0.0925478994       -0.6760229350
 C         -3.8853512622        1.0101286233       -1.4831192941
 C         -4.7294558515        2.0820640975       -0.7957917858
 C         -3.9411922847        3.1437180054       -0.0318284143
 H         -4.6595645646        3.8172957889        0.4410738210
 H         -3.3558251476        3.7290384748       -0.7443747672
 C         -2.9848581591        2.6149586197        1.0349651429
 H         -2.5535990195        3.4754809577        1.5534526522
 H         -2.1591340510        2.0819793439        0.5587648241
 C         -3.6180556220        1.7091520524        2.0909239627
 H         -4.4896654575        2.2020274516        2.5256613392
 H         -2.8813766421        1.5726560296        2.8872409154
 C         -4.0342274206        0.3075711476        1.6037336226
 H         -5.0400658853        0.3121571288        1.1894134495
 H         -4.0390637739       -0.3632933649        2.4676132337
 H         -5.4643719520        1.6227750886       -0.1409983432
 H         -5.2866740368        2.5901857139       -1.5876980876
 H         -4.5600470778        0.3554795346       -2.0464267968
 H         -3.2304340507        1.4843647016       -2.2187896635
 O         -2.0534576801       -0.4218248207       -1.5182948799
 C         -1.1265739107       -1.3696185802       -1.1082678644
 O         -0.3403661705       -1.7278772735       -2.0007955899
 O         -2.1366446919       -1.5954185948        2.3568703227
 C         -0.1831379832       -2.8349072360        0.7236166892
 C          1.2077448208       -2.3668445035        0.3763427198
 C          2.0827671125       -2.9140390990       -0.5516941520
 C          3.3178678402       -2.3308293398       -0.7890600298
 C          3.7116990037       -1.1859135074       -0.1246677626
 C          2.8362334746       -0.6108547837        0.7889426117
 C          1.6116770454       -1.2067951485        1.0369867516
 H          0.9355416894       -0.7523321356        1.7515432320
 N          3.2050720726        0.5771859848        1.4563774334
 S          3.4831829349        1.9391620124        0.5250127058
 O          4.5753226080        1.6731944847       -0.3754923541
 O          3.6793791755        3.0148039872        1.4696482504
 C          1.9855372446        2.2244582547       -0.4034602896
 C          1.6730081584        1.3882708673       -1.4572513827
 C          0.5007233240        1.6094337394       -2.1627202201
 C         -0.3272613483        2.6636407025       -1.8107944426
 C         -0.0011873393        3.4939897694       -0.7495156645
 C          1.1619172736        3.2687722346       -0.0319263072
 H          1.4550848411        3.8886636637        0.8000409555
 H         -0.6491995773        4.3121107452       -0.4788441040
 H         -1.2324720860        2.8389141055       -2.3707588598
 H          0.2359257549        0.9452257578       -2.9701955580
 H          2.3374398156        0.5805573072       -1.7176020269
 H          2.5791962643        0.8178673945        2.2124796291
 H          4.6603642421       -0.7129343799       -0.3188702794
 H          3.9815932746       -2.7774619395       -1.5141418615
 H          1.8129279171       -3.7820732005       -1.1240677390
 H         -0.2645988870       -2.7763141445        1.8218295675
 C         -0.6823810920       -4.2256534795        0.3632277251
 C         -0.5693612730       -4.8712282597       -0.9826794231
 C          0.1791959973       -5.4390632187        0.1878630998
 H         -0.1748578299       -6.3693955269        0.6072328372
 H          1.2494113910       -5.3230441374        0.2366456272
 H         -1.4284296388       -5.4157714408       -1.3486028276
 H         -0.0440240733       -4.3400390682       -1.7594084974
 H         -1.6277446150       -4.3954819637        0.8748196672
