  62
        -98.94438833
 C          1.8315735192        1.0915540805       -0.1172815907
 C          2.3193933695       -0.0281981192       -0.8330467309
 C          3.7807638296       -0.1694639088       -0.8699766608
 C          4.5591981193        0.7529607013       -0.2755933105
 C          6.0637412993        0.7580979417       -0.2501405104
 C          6.6728861594       -0.1102615784        0.8592709495
 C          6.5659228198       -1.6195416584        0.6374219391
 H          6.9526138700       -1.8688145880       -0.3511989109
 H          7.2169755199       -2.0980858983        1.3717354991
 C          5.1468682400       -2.1838822688        0.7944821488
 H          5.1796821402       -3.0882891289        1.4061191186
 H          4.5233150497       -1.4612768191        1.3257924590
 C          4.4616212002       -2.5524322687       -0.5214959213
 H          5.0019674005       -3.3727790884       -0.9993070514
 H          3.4501683903       -2.9007360290       -0.2960525415
 C          4.3498238700       -1.3935986585       -1.5209049210
 H          3.6656706501       -1.6937276785       -2.3185590312
 H          5.3243027600       -1.1772865081       -1.9583734809
 H          7.7312848193        0.1502606719        0.9321711196
 H          6.1998200492        0.1526856213        1.8081465195
 H          6.4473138494        0.4353502020       -1.2183657004
 H          6.3681186290        1.7934995718       -0.0827882301
 O          4.0493978489        1.8320803610        0.3761388397
 C          2.6806115088        2.0148830206        0.4923661196
 O          2.3496448685        3.0209268404        1.1519330798
 O          1.5793536898       -0.8660127693       -1.4112654412
 C          0.3345336391        1.3178474401        0.0027979892
 C         -0.3172854006        0.0946278797        0.5983482389
 C          0.1956467094       -0.4169822804        1.7887420588
 C         -0.3433506103       -1.5508727907        2.3624107685
 C         -1.4165964501       -2.1927848508        1.7690193282
 C         -1.9430241201       -1.6850810807        0.5880621283
 C         -1.4007768804       -0.5413141404        0.0143396286
 H         -1.8168220104       -0.1823811403       -0.9118510513
 N         -3.0248707599       -2.3202029609       -0.0341192219
 S         -4.1672029101       -1.4556161410       -0.8813950118
 O         -5.3339837698       -2.3130194113       -0.8836593621
 O         -3.6684813200       -1.0786803505       -2.1800029217
 C         -4.4957504006        0.0066587987        0.0890304185
 C         -4.6753803106       -0.1149856417        1.4528856384
 C         -4.9451665810        1.0220110681        2.1969861887
 C         -5.0376535013        2.2547824382        1.5690795489
 C         -4.8642336812        2.3594853786        0.1981255990
 C         -4.5899614108        1.2255616988       -0.5498539513
 H         -4.4413206407        1.2622135791       -1.6168296312
 H         -4.9381624414        3.3177260287       -0.2908630008
 H         -5.2465626416        3.1384751680        2.1511974991
 H         -5.0816547811        0.9437774778        3.2635435486
 H         -4.6045642704       -1.0845543318        1.9177483082
 H         -3.4199675297       -3.1016398211        0.4662903778
 H         -1.8339974099       -3.0858535511        2.2085583180
 H          0.0730491597       -1.9402230808        3.2792365884
 H          1.0365690892        0.0838651797        2.2495583290
 H          0.2076237688        2.1529397899        0.7070742894
 C         -0.2345827209        1.7242990802       -1.3398011807
 C         -1.4523559211        2.5934447699       -1.4123468107
 C         -0.1096041913        3.1535403303       -1.7714194504
 H          0.1040321288        3.3626777306       -2.8089393803
 H          0.3634146385        3.8376253203       -1.0817799302
 H         -2.1600682410        2.4147738199       -2.2076408908
 H         -1.9012790713        2.9038303096       -0.4810310306
 H         -0.1058424206        0.9600044004       -2.0982898509
