  62
        -98.93925843
 C         -1.8199504430       -0.5036170986       -0.0073006346
 C         -2.9084037169       -0.5914982890        0.8989609568
 C         -4.0843506757        0.2515492023        0.6270185562
 C         -4.0803233639        1.0554876766       -0.4521881814
 C         -5.1036869254        2.0474073758       -0.9641039058
 C         -6.5298230302        2.0479721744       -0.4200913567
 C         -7.3545275858        0.8143413351       -0.7864245918
 H         -7.5608723726        0.8410531345       -1.8594074847
 H         -8.3110179978        0.8753500464       -0.2627300449
 C         -6.7030383092       -0.5310631895       -0.4764946506
 H         -5.7924863199       -0.6427557100       -1.0686648761
 H         -7.3925424193       -1.3173263991       -0.7957372216
 C         -6.3714336262       -0.7736960517        0.9945754635
 H         -6.0646289170       -1.8182760131        1.0946792008
 H         -7.2669079952       -0.6290857713        1.6020777771
 C         -5.2415944130        0.0968745212        1.5712526159
 H         -4.8474773597       -0.4060293714        2.4590928198
 H         -5.6126097174        1.0694407761        1.8859215953
 H         -7.0281800943        2.9186390587       -0.8552037290
 H         -6.5220358460        2.1962973998        0.6557565668
 H         -4.6674769975        3.0378962168       -0.7925429911
 H         -5.1347857405        1.9099001537       -2.0497709005
 O         -3.0074254869        1.1155796785       -1.2914387454
 C         -1.8652657549        0.3542486879       -1.1040826058
 O         -0.9979243678        0.5484773880       -1.9808066571
 H          0.8002568487        0.6821236762       -0.7232589269
 C          1.1375696480        0.4084558071        0.2653903905
 C          0.4996759428       -0.6226022438        0.9406909355
 C          0.9404046617       -0.9532196259        2.2164714677
 C          1.9921726100       -0.2680020673        2.8004808186
 C          2.6259567337        0.7583288435        2.1237864902
 C          2.1870623710        1.0997188567        0.8510812641
 N          2.8407344156        2.1322320900        0.1449439928
 S          4.4780234730        1.8749457684       -0.1154764038
 O          5.2057318181        2.2048919031        1.0844190425
 O          4.8160079575        2.6435677331       -1.2923309199
 C          4.5998611005        0.1252082493       -0.4399876071
 C          5.1211130394       -0.7187844276        0.5191279357
 C          5.1302171808       -2.0828747083        0.2759366885
 C          4.6156645507       -2.5763125366       -0.9125855356
 C          4.0969624136       -1.7146749832       -1.8669842345
 C          4.0837507878       -0.3504034185       -1.6290163812
 H          3.6890291789        0.3480959549       -2.3498918265
 H          3.6979874228       -2.0985277418       -2.7924394967
 H          4.6189804707       -3.6390036790       -1.0975082335
 H          5.5329775184       -2.7559543405        1.0153724800
 H          5.5097980083       -0.2930364854        1.4294494535
 H          2.3835463259        2.3532663065       -0.7287975507
 H          3.4519946896        1.2996434152        2.5561407189
 H          2.3226246821       -0.5362283203        3.7921931937
 H          0.4452099995       -1.7476497153        2.7552113831
 C         -0.6208807790       -1.3907398932        0.2819932058
 H         -0.9851831280       -2.1334541912        1.0040016775
 C         -0.1038155953       -2.1229064968       -0.9421385020
 C          0.7274593765       -3.3546380368       -0.7525835902
 C         -0.6678693867       -3.4666954362       -1.2880855727
 H         -0.8063244942       -3.7136924388       -2.3300115412
 H         -1.4334838644       -3.8690475397       -0.6407087792
 H          0.9096924266       -3.6827496939        0.2591873715
 H          1.5527664408       -3.5251258875       -1.4256813087
 H          0.1491003161       -1.4639630950       -1.7622473528
 O         -2.8978012161       -1.3508003849        1.9040757480
