  62
        -98.94085285
 C         -2.6597371778       -1.1663874159       -0.3890726741
 C         -2.1681933977       -0.0008307966       -1.0256827460
 C         -3.0615897925        1.1673028874       -1.0008971340
 C         -4.2627676724        1.0705894112       -0.4031994026
 C         -5.2428171550        2.1972301957       -0.2548130040
 C         -5.0225055608        2.9523127638        1.0634550646
 C         -3.5670583129        3.3483749631        1.3136077569
 H         -3.5376616500        3.9032036215        2.2540097569
 H         -2.9681360605        2.4455405195        1.4577103103
 C         -2.9396471973        4.1979871954        0.1996400512
 H         -2.3882026788        5.0219971242        0.6573275649
 H         -3.7242379840        4.6359639397       -0.4186285297
 C         -1.9518936999        3.4447152272       -0.6935067118
 H         -1.2140154828        2.9292139065       -0.0719703990
 H         -1.4122443752        4.1800252463       -1.2966140685
 C         -2.5701010387        2.4256574913       -1.6593117671
 H         -3.3705586209        2.8997699581       -2.2308492541
 H         -1.7870823380        2.1128042530       -2.3561000867
 H         -5.6482576111        3.8465692281        1.0582402305
 H         -5.3487511628        2.3134900934        1.8873900936
 H         -5.1378890805        2.8775870400       -1.0974846509
 H         -6.2506918045        1.7789703782       -0.2590952081
 O         -4.7052113318       -0.0691738211        0.1864314351
 C         -3.9123295226       -1.2024030713        0.2281120907
 O         -4.4278589812       -2.1670956377        0.8275809150
 H          0.7666120245       -1.7502716263       -0.9541551411
 C          0.5999344820       -1.7699690054        0.1109550021
 C         -0.6443653984       -2.1235662397        0.6064335406
 C         -0.8424008141       -2.1112647278        1.9846568419
 C          0.1815115133       -1.7539794918        2.8412969141
 C          1.4215713405       -1.3928842672        2.3427237106
 C          1.6249985674       -1.3928813757        0.9699723653
 N          2.8805522461       -1.0228998487        0.4475485997
 S          3.5845137489        0.3715555679        1.0946599065
 O          4.2300748788        0.0186447505        2.3353810502
 O          2.6118321837        1.4386496374        1.1740632781
 C          4.8151152042        0.7314589646       -0.1423936596
 C          6.0593319208        0.1388082886       -0.0419807443
 C          7.0038442098        0.3955969275       -1.0230006499
 C          6.6896437373        1.2343743996       -2.0819129130
 C          5.4362508994        1.8217758784       -2.1689647310
 C          4.4863790428        1.5683973513       -1.1918931213
 H          3.5018204730        2.0087191996       -1.2161347001
 H          5.1947444335        2.4745958026       -2.9923730297
 H          7.4263183721        1.4340157102       -2.8439816827
 H          7.9798334344       -0.0576262707       -0.9588431870
 H          6.2593356522       -0.4990188339        0.8029637239
 H          2.8484860442       -0.9549985236       -0.5615373176
 H          2.2234182548       -1.0918215755        2.9974950830
 H          0.0134263038       -1.7484777937        3.9080872387
 H         -1.8184188367       -2.3691895828        2.3732636032
 C         -1.8151719779       -2.4282581125       -0.2961167131
 H         -2.4449061395       -3.1761513382        0.2035381752
 C         -1.4266123796       -2.9527158328       -1.6620220719
 C         -0.9026478425       -4.3508567976       -1.7874842214
 C         -2.2685077508       -4.0129958671       -2.3028968248
 H         -2.4221475950       -3.9716625118       -3.3708043837
 H         -3.1271095239       -4.3694759043       -1.7526862864
 H         -0.8326316967       -4.9375386268       -0.8839999652
 H         -0.1176771985       -4.5468254567       -2.5017106667
 H         -1.0127117306       -2.1928654121       -2.3127409809
 O         -1.0476318850        0.0718939148       -1.5957435166
