  62
        -98.94270199
 C         -1.3100852805       -1.6171345675        0.3185065103
 C         -1.9049063596       -1.1177005880       -0.8661894933
 C         -2.9504195619       -0.0981173848       -0.6786525154
 C         -3.2184263300        0.3606332720        0.5568916524
 C         -4.2315650473        1.4204558163        0.8784133587
 C         -3.6185381226        2.8268803486        0.8466064722
 C         -2.7997878907        3.1172023612       -0.4108059596
 H         -2.4446140154        4.1473361699       -0.3391872842
 H         -1.9193007781        2.4705133466       -0.4195562648
 C         -3.5691281856        2.9402150644       -1.7268576841
 H         -3.3539516276        3.7908875293       -2.3769984335
 H         -4.6427413271        2.9434325684       -1.5350443212
 C         -3.1988784548        1.6779860613       -2.5067564446
 H         -2.1130583833        1.6223618595       -2.6211242566
 H         -3.6274116278        1.7586588633       -3.5094588135
 C         -3.6919302159        0.3562639353       -1.9051901253
 H         -4.7625150008        0.4253603213       -1.7002236396
 H         -3.5367342536       -0.4253910580       -2.6549285015
 H         -4.4267822492        3.5554050446        0.9326340462
 H         -2.9657010302        2.9382553696        1.7144598393
 H         -5.0504975476        1.3552323117        0.1640417217
 H         -4.6213736297        1.2269392187        1.8792214732
 O         -2.5657109755       -0.0792273948        1.6619826304
 C         -1.6273696259       -1.0930686285        1.5752907575
 O         -1.1481592690       -1.4421917346        2.6715231151
 H          0.5462476127       -0.5746920936       -1.1145912993
 C          1.3696259559       -1.1419939176       -0.7055080229
 C          1.1154268229       -2.2804507580        0.0426159036
 C          2.1982213388       -2.9930367263        0.5481658330
 C          3.4959217903       -2.5794125377        0.3065723022
 C          3.7440817029       -1.4360696731       -0.4332357212
 C          2.6705184623       -0.7141417717       -0.9345061455
 N          2.9170972449        0.4904953174       -1.6348273698
 S          3.4260197768        1.7587884462       -0.6621557751
 O          3.4386676142        2.9288986119       -1.5090468487
 O          4.6794329644        1.3918679807       -0.0558758605
 C          2.1637707607        1.9243687503        0.5892430086
 C          1.2398001125        2.9437646273        0.4783161042
 C          0.2260383767        3.0353975153        1.4185730221
 C          0.1338347809        2.0900100204        2.4282181141
 C          1.0654381405        1.0681567683        2.5237627608
 C          2.0982653023        0.9880752916        1.6032866986
 H          2.8492363747        0.2175323539        1.6646596538
 H          0.9754060103        0.3237182518        3.2987422435
 H         -0.6694021691        2.1400352675        3.1468863885
 H         -0.4906404459        3.8384323434        1.3578727971
 H          1.3380009771        3.6486213253       -0.3318973962
 H          2.1210353957        0.7963515639       -2.1780719902
 H          4.7453442891       -1.0767146372       -0.6049010840
 H          4.3235582208       -3.1453768193        0.7057362730
 H          2.0173542541       -3.8737138363        1.1450333822
 C         -0.2951064398       -2.7452661404        0.3232483438
 H         -0.3072039245       -3.1505931307        1.3448245999
 C         -0.6640843258       -3.8634276752       -0.6366137611
 C         -0.3441842667       -5.2854280911       -0.2935948650
 C         -1.7655166115       -4.8106944093       -0.2710104794
 H         -2.4393695684       -5.1403837647       -1.0472356225
 H         -2.2414270728       -4.6734400353        0.6894219130
 H          0.1302732781       -5.4852053110        0.6549411259
 H         -0.0348160611       -5.9472966649       -1.0877907884
 H         -0.5930726292       -3.5677241353       -1.6756328542
 O         -1.5965220686       -1.4868561662       -2.0309478062
