  62
        -98.94431815
 C         -2.6307978666       -1.1045415421        0.1960382718
 C         -2.7274087015       -0.3018709783       -0.9667328284
 C         -3.5561036238        0.9036047567       -0.8384050522
 C         -4.1733573831        1.1724341873        0.3265092746
 C         -5.0716250837        2.3479901609        0.6020790926
 C         -4.3228934606        3.6305163923        0.9902310045
 C         -3.5751835422        4.3188551376       -0.1525272094
 H         -4.2546652600        4.4666683338       -0.9922930481
 H         -3.2809376294        5.3070072631        0.2066992041
 C         -2.3206097644        3.5723732565       -0.6279765685
 H         -1.4933374653        4.2781437346       -0.7309878686
 H         -2.0239806415        2.8416343296        0.1284521759
 C         -2.4781201841        2.8577945765       -1.9703354742
 H         -2.6418072832        3.5943958717       -2.7598478772
 H         -1.5466639106        2.3289645200       -2.1885857946
 C         -3.6220661546        1.8360899047       -2.0099792901
 H         -3.5146780152        1.2368514293       -2.9172067665
 H         -4.5839896793        2.3472414616       -2.0381864944
 H         -5.0612752643        4.3309937412        1.3871282354
 H         -3.6223713814        3.3961838511        1.7955157217
 H         -5.6988794242        2.5409997142       -0.2685418889
 H         -5.7139211317        2.0589593051        1.4367997335
 O         -4.0599020407        0.3694189696        1.4192191632
 C         -3.2699431983       -0.7695360968        1.3883881774
 O         -3.2169527948       -1.3882367149        2.4721904164
 O         -2.1545424004       -0.5746633139       -2.0523767304
 C         -1.7842756495       -2.3631643894        0.1720726851
 C         -0.3572906224       -2.0341281373       -0.1978359549
 C          0.4029440973       -2.8156842267       -1.0579134687
 C          1.7142072765       -2.4744440459       -1.3417477094
 C          2.2954403342       -1.3538962676       -0.7782925296
 C          1.5493142609       -0.5723079781        0.0942597222
 C          0.2391921857       -0.9213327860        0.3824027016
 H         -0.3386849921       -0.3123188566        1.0684195903
 N          2.1298394934        0.5741782279        0.6675269611
 S          3.5918741438        0.3879437785        1.4751073717
 O          3.7236010883       -0.9404254192        2.0279517382
 O          3.6452490681        1.4843571580        2.4176675541
 C          4.8177038875        0.6486505747        0.2109194617
 C          4.7740495070        1.8289329107       -0.5050712481
 C          5.7271999380        2.0514034395       -1.4859591814
 C          6.7039492547        1.0972801630       -1.7301820652
 C          6.7360801124       -0.0809047892       -1.0000445726
 C          5.7844508985       -0.3106284385       -0.0184504560
 H          5.7655251753       -1.2139533665        0.5700874042
 H          7.4963765253       -0.8210078615       -1.1912005760
 H          7.4446159008        1.2734489952       -2.4941626672
 H          5.7050636076        2.9661557779       -2.0561072547
 H          4.0007926838        2.5451258394       -0.2820858771
 H          1.4877121495        1.1118046924        1.2316220364
 H          3.3130988668       -1.0800898039       -1.0039810359
 H          2.2906361389       -3.0886920277       -2.0164303234
 H         -0.0326276657       -3.6919267833       -1.5091226403
 H         -1.7840772510       -2.7514787917        1.2019583340
 C         -2.4190160475       -3.3956683652       -0.7373229374
 C         -2.2674024263       -4.8579306073       -0.4479961750
 C         -3.5868511036       -4.1831299146       -0.2268502585
 H         -4.3995521671       -4.3994261078       -0.9037995126
 H         -3.9039357237       -3.9945429486        0.7889560121
 H         -2.1775911865       -5.5416315231       -1.2786853414
 H         -1.6919808270       -5.1397180778        0.4210439734
 H         -2.4449191924       -3.0754930998       -1.7724846301
