  62
        -98.94784764
 C         -1.0068349800       -0.9592974702        0.7160377693
 C         -1.6659476200       -0.8655614194       -0.5330816506
 C         -2.3442808697        0.4082833609       -0.8001112500
 C         -2.2478789394        1.4166060405        0.0841024405
 C         -2.8463840290        2.7891521207       -0.0679772288
 C         -4.3199497690        2.8802195009        0.3523341313
 C         -5.3133307192        2.2207854316       -0.6049609090
 H         -6.3112291091        2.5479075317       -0.3061869088
 H         -5.1391009591        2.5886264420       -1.6166419688
 C         -5.2748907296        0.6862727416       -0.5998404597
 H         -4.7584671897        0.3375160110        0.2972220401
 H         -6.2942612397        0.2965068418       -0.5559121299
 C         -4.6052503598        0.0656590520       -1.8260098201
 H         -5.1873542498        0.2992497926       -2.7202780499
 H         -4.5994334601       -1.0201532081       -1.7018164406
 C         -3.1580851397        0.5227634617       -2.0528335799
 H         -3.1377331494        1.5463610919       -2.4277512794
 H         -2.7005365899       -0.1282727180       -2.8022689202
 H         -4.5711900787        3.9406914909        0.4279737018
 H         -4.4259949791        2.4407524404        1.3467123011
 H         -2.2649368688        3.4561511502        0.5726936515
 H         -2.7361849790        3.1213789312       -1.1011170087
 O         -1.5520600494        1.3073893497        1.2475922004
 C         -0.9238009497        0.1203883294        1.5934814099
 O         -0.3272711896        0.1558623887        2.6889537799
 O         -1.6917056503       -1.7956278990       -1.3813214010
 C         -0.2470972103       -2.2232298505        1.0806921587
 C          0.8578411296       -2.4240875903        0.0712011986
 C          1.1314110393       -3.6314115101       -0.5565604720
 C          2.1348149892       -3.7091855499       -1.5079588221
 C          2.8694997095       -2.5924089200       -1.8616789716
 C          2.6129347698       -1.3824377402       -1.2256677910
 C          1.6343192599       -1.3176992504       -0.2496371009
 H          1.4386114102       -0.3776064006        0.2451633895
 N          3.3398237401       -0.2239203002       -1.5363177404
 S          2.5988406705        1.2733270099       -1.4438576597
 O          1.2113529905        1.2246927905       -1.8439095297
 O          3.4518025307        2.1374167901       -2.2350954693
 C          2.7440779707        1.7396002291        0.2671468605
 C          1.6869401009        2.3824208290        0.8786436509
 C          1.8074105110        2.7626290784        2.2052993910
 C          2.9817837110        2.4985743077        2.8919753609
 C          4.0388314608        1.8599931378        2.2612024805
 C          3.9237526907        1.4767352384        0.9348989804
 H          4.7207899705        0.9736055385        0.4133882701
 H          4.9494086508        1.6556899873        2.8011884404
 H          3.0692660611        2.7892618972        3.9269418410
 H          0.9791203312        3.2464076984        2.6974341413
 H          0.7829093309        2.5514003796        0.3134188210
 H          3.9578691101       -0.2991012200       -2.3309410105
 H          3.6308137695       -2.6506955998       -2.6244639416
 H          2.3347087890       -4.6511583997       -1.9958842025
 H          0.5514878890       -4.5066801601       -0.3138529024
 H          0.2143582898       -2.0299305211        2.0603140688
 C         -1.1859483906       -3.4038670903        1.2030248682
 C         -0.8509585709       -4.5415920609        2.1188262876
 C         -1.9508474406       -3.5895094108        2.4778993281
 H         -2.9727950007       -3.9330296205        2.4206964880
 H         -1.7740507704       -2.8760053312        3.2697816684
 H         -1.1207412212       -5.5425578607        1.8176942571
 H          0.0720595491       -4.4805247014        2.6751444576
 H         -1.6996215707       -3.6246178098        0.2746041481
