  62
        -98.93537470
 C          2.2640212673        0.8609308573        0.0046886195
 C          2.4460656320       -0.1697030368        0.9518591724
 C          2.4964226779       -1.5480163949        0.4329138479
 C          2.3801711398       -1.7495590778       -0.8921189214
 C          2.3600650576       -3.0505232028       -1.6550217154
 C          3.3665032525       -4.1303666455       -1.2299004179
 C          2.7192341714       -5.3215203001       -0.5210433315
 H          1.7718311396       -5.5452945789       -1.0156316122
 H          3.3656918004       -6.1935548085       -0.6419751603
 C          2.4733160359       -5.1341648826        0.9749164858
 H          3.4280767652       -5.1580463985        1.5046398232
 H          1.8858084073       -5.9867481855        1.3233178853
 C          1.7426946321       -3.8465803363        1.3614322302
 H          0.9329460524       -3.6349553336        0.6624534356
 H          1.2811468982       -4.0019313759        2.3393413690
 C          2.6681751908       -2.6248564338        1.4691755285
 H          2.4962792651       -2.1180441969        2.4240933790
 H          3.7136161070       -2.9463161578        1.4803195785
 H          4.1408037353       -3.6897123455       -0.6043021472
 H          3.8527924942       -4.5020572199       -2.1332671227
 H          1.3426253479       -3.4487625113       -1.6108667608
 H          2.5363487523       -2.7681182146       -2.6956258202
 O          2.2232621694       -0.7207515330       -1.7736423456
 C          2.1291991858        0.5944064367       -1.3566400718
 O          1.9439597967        1.4150725034       -2.2759631284
 H         -0.1842113777        0.9203606895        0.3683754228
 C         -0.3336410720        1.9594351593        0.1126446536
 C          0.7499652034        2.8283750499        0.1119956077
 C          0.5266929326        4.1631134810       -0.2023164060
 C         -0.7475053172        4.6040512881       -0.5169275177
 C         -1.8188987724        3.7311828630       -0.5323224892
 C         -1.6048188752        2.3906518752       -0.2254698806
 N         -2.6610293443        1.4686446580       -0.2948251542
 S         -2.5333668444       -0.0667118602        0.3740267895
 O         -2.2410704874        0.0138358065        1.7892080879
 O         -1.6307526588       -0.8574857699       -0.4258112657
 C         -4.2074998146       -0.6312904392        0.1329583663
 C         -4.5749920548       -1.1003195940       -1.1141507091
 C         -5.8836951969       -1.5078233994       -1.3183123430
 C         -6.7988045752       -1.4397130148       -0.2780483580
 C         -6.4150439232       -0.9698764736        0.9688986775
 C         -5.1076804805       -0.5598456446        1.1792044770
 H         -4.7607875684       -0.1961509908        2.1329872637
 H         -7.1273300291       -0.9213222796        1.7766243010
 H         -7.8165560186       -1.7576046736       -0.4399695501
 H         -6.1842326970       -1.8766464018       -2.2857092417
 H         -3.8264494190       -1.1425754537       -1.8884673964
 H         -3.5753376573        1.8782744482       -0.1693035804
 H         -2.8087164731        4.0749080736       -0.7895884785
 H         -0.9071946161        5.6441703922       -0.7573347590
 H          1.3512567077        4.8571875193       -0.2029817855
 C          2.1117724354        2.2905424057        0.4847239118
 H          2.1675748392        2.2386726401        1.5835210819
 C          3.2508388048        3.1524434469       -0.0214045514
 C          3.7826670090        4.2794581007        0.8114744229
 C          4.5930542247        3.0320299873        0.6341722952
 H          5.4754523215        3.0694803006        0.0133934993
 H          4.6743157411        2.3501472923        1.4683144135
 H          4.1132800683        5.1775025578        0.3117393055
 H          3.3247367776        4.4499042656        1.7742276811
 H          3.2282425628        3.2738399076       -1.0985481094
 O          2.5540222599        0.0513546922        2.1911948555
