  62
        -98.93879264
 C          1.8108278973       -1.1022257642       -0.4039153232
 C          2.1552830076        0.0633007272       -1.1368613778
 C          3.5805433708        0.4038794121       -1.1899143182
 C          4.4782700336       -0.3995083350       -0.5917248573
 C          5.9704566161       -0.2065721928       -0.5771137828
 C          6.4653431307        0.7518423094        0.5146611640
 C          6.1622634866        2.2304903481        0.2691496077
 H          6.7498752133        2.8021317848        0.9902379712
 H          6.5068533214        2.5109999455       -0.7266387543
 C          4.6830910794        2.6092467854        0.4293089266
 H          4.6022294972        3.5210549025        1.0255380362
 H          4.1612110554        1.8221798443        0.9788458732
 C          3.9466604399        2.8630154590       -0.8862995549
 H          4.3733596451        3.7375507873       -1.3828125598
 H          2.9006089830        3.0839569182       -0.6565057741
 C          3.9772876888        1.6817720324       -1.8649236055
 H          3.2530426954        1.8767224647       -2.6597705712
 H          4.9680795397        1.5867269825       -2.3090479615
 H          7.5488937085        0.6326469849        0.5858676328
 H          6.0335323057        0.4458241839        1.4702843576
 H          6.3032330193        0.1486195208       -1.5528331457
 H          6.4090126112       -1.1902188401       -0.3961080521
 O          4.1156278638       -1.5276851967        0.0700070336
 C          2.7807508309       -1.8982390392        0.2077328641
 O          2.6223749781       -2.9353982481        0.8756860145
 O          1.3062574230        0.7799154948       -1.7335437119
 C          0.3332784589       -1.4398193661       -0.3271070755
 C         -0.3013789492       -0.8683824396        0.9157144109
 C          0.2594595042       -1.0562146347        2.1750704942
 C         -0.3524392442       -0.5271606435        3.2968863156
 C         -1.5278568795        0.1947329671        3.1871435567
 C         -2.0990820151        0.3868530422        1.9340737779
 C         -1.4819973195       -0.1471261911        0.8107275370
 H         -1.9124667545        0.0251997375       -0.1627077567
 N         -3.3128253029        1.0696765925        1.8037366422
 S         -3.7194822644        1.9197827213        0.4231140357
 O         -2.5885015837        2.6252637508       -0.1307575521
 O         -4.8401532112        2.7370804631        0.8361523338
 C         -4.2961975049        0.6624387872       -0.6970783216
 C         -5.2843941064       -0.1968160135       -0.2585553045
 C         -5.7404987131       -1.1849813385       -1.1159381337
 C         -5.2051991790       -1.2950896462       -2.3905842317
 C         -4.2173943678       -0.4210648674       -2.8177014489
 C         -3.7566493091        0.5697363687       -1.9647031634
 H         -2.9799153470        1.2615706189       -2.2533883567
 H         -3.7994294741       -0.5079329564       -3.8079313624
 H         -5.5579112179       -2.0670296574       -3.0560938527
 H         -6.5081056574       -1.8672854173       -0.7882539944
 H         -5.6758494643       -0.0773128892        0.7378043704
 H         -3.6621096102        1.5026551731        2.6453337836
 H         -2.0010685645        0.6076197583        4.0649462685
 H          0.0925638570       -0.6771419818        4.2691691840
 H          1.1726806204       -1.6245344325        2.2650745404
 H         -0.1120334001       -0.9148344233       -1.1877092927
 C          0.0391901552       -2.9234990797       -0.5053444490
 C         -0.4639399327       -3.8065699149        0.5925669375
 C         -1.3820137507       -3.4047067359       -0.5202666540
 H         -1.6693511203       -4.1455881638       -1.2504415941
 H         -2.1517482982       -2.6805314730       -0.2967595484
 H         -0.0936940626       -4.8197435431        0.6253124264
 H         -0.6192854425       -3.3712584927        1.5667419846
 H          0.7174896894       -3.3837329988       -1.2167452793
