  62
        -98.94065517
 C          1.4316118406        1.4325235291        0.4282654602
 C          1.8933327202        0.3172483589        1.1746037401
 C          2.9780984501       -0.4635119613        0.5704050101
 C          3.4555474104       -0.1159593412       -0.6379685997
 C          4.5822549103       -0.7891031113       -1.3738626497
 C          4.1525634002       -2.0216833311       -2.1809484200
 C          3.8051738597       -3.2551041911       -1.3467314803
 H          3.7333789296       -4.0976635910       -2.0372833805
 H          4.6234161995       -3.4678786815       -0.6580389002
 C          2.4877571096       -3.1417851809       -0.5666458405
 H          1.8860806399       -2.3287672307       -0.9798535405
 H          1.9112406493       -4.0598824508       -0.6941722108
 C          2.6559204593       -2.9177445213        0.9361016896
 H          3.1326273690       -3.7909568515        1.3866645895
 H          1.6625050893       -2.8047306011        1.3755337594
 C          3.4729331296       -1.6729151116        1.3044810400
 H          3.3509088395       -1.4867724418        2.3743484100
 H          4.5301198096       -1.8377257818        1.0967277001
 H          4.9798875702       -2.2796713612       -2.8462236199
 H          3.2975025404       -1.7495527707       -2.8040447601
 H          5.3650433801       -1.0688438717       -0.6681243496
 H          4.9872864907       -0.0479264013       -2.0664055994
 O          2.9583744108        0.9331553991       -1.3423997696
 C          1.9206127809        1.7167007193       -0.8484778596
 O          1.5530165313        2.6060472595       -1.6368694195
 O          1.4226776799       -0.0081457012        2.2968278999
 C          0.3074055207        2.2567869993        1.0311665002
 C         -0.8253649991        2.3755382498        0.0448882700
 C         -1.1319243586        3.5511744800       -0.6274537299
 C         -2.1611189085        3.5779949205       -1.5512526900
 C         -2.9175963087        2.4477334007       -1.8019243904
 C         -2.6246898492        1.2682288705       -1.1276500706
 C         -1.5780405693        1.2380670701       -0.2207294704
 H         -1.3437305397        0.3150568799        0.2916433895
 N         -3.3732198194        0.0985965408       -1.3470777110
 S         -3.9182269499       -0.7529917694       -0.0084297612
 O         -5.1065024100       -1.4388469989       -0.4717818216
 O         -4.0900964699        0.1160896405        1.1320148889
 C         -2.6632329503       -1.9706940998        0.3198006487
 C         -2.3257576103       -2.8525197396       -0.6880096714
 C         -1.4013849707       -3.8493938499       -0.4220846014
 C         -0.8382814209       -3.9513517703        0.8412297587
 C         -1.1818922409       -3.0536464105        1.8401077088
 C         -2.1039610405       -2.0526677102        1.5791451588
 H         -2.3963565905       -1.3335065902        2.3281055089
 H         -0.7356702111       -3.1239488208        2.8194895389
 H         -0.1276545112       -4.7353506906        1.0509870087
 H         -1.1259510207       -4.5462559999       -1.1972720915
 H         -2.7950039001       -2.7489027193       -1.6522408414
 H         -4.1078468093        0.1982886511       -2.0333902011
 H         -3.7268245486        2.4734951711       -2.5164726606
 H         -2.3819023581        4.4936332407       -2.0789183199
 H         -0.5451405184        4.4366442898       -0.4466829796
 H         -0.0501149296        1.6465997992        1.8775539300
 C          0.7368330209        3.5918427191        1.6196849905
 C          2.0760657209        3.7405070486        2.2765621308
 C          1.7823700313        4.4682145889        1.0007692809
 H          1.6387204316        5.5381305690        1.0454348311
 H          2.2521651814        4.1301197690        0.0911873509
 H          2.1417737608        4.3079042884        3.1927175409
 H          2.7446340506        2.8926442084        2.2371296407
 H         -0.0943667190        4.0985886892        2.1016574005
