  62
        -98.93917638
 C          2.2054462794        0.1952538034        0.3311333194
 C          3.2450803662        0.6831545358       -0.4986377791
 C          4.3252334655       -0.2682535405       -0.7956787070
 C          4.2710068059       -1.5234842063       -0.3173278057
 C          5.2794265876       -2.6130288210       -0.5621249070
 C          6.4883501727       -2.5691523599        0.3826182072
 C          7.4800498743       -1.4356264029        0.1178120814
 H          7.7668663313       -1.4441062307       -0.9341500629
 H          8.3766472943       -1.6520572769        0.7020582944
 C          6.9654518451       -0.0414068769        0.5022216657
 H          7.7402871973        0.4924008558        1.0571338261
 H          6.1061379682       -0.1413890518        1.1694191179
 C          6.5704640159        0.8381104738       -0.6840472802
 H          7.4534812512        1.0552513641       -1.2890827088
 H          6.1866276059        1.7846327258       -0.2953843219
 C          5.4946633342        0.2281203150       -1.5919805925
 H          5.9186640158       -0.5794472573       -2.1880586106
 H          5.1309005966        1.0081488455       -2.2649159392
 H          7.0179948189       -3.5188461993        0.2775279083
 H          6.1252276215       -2.5034814468        1.4109179792
 H          5.6223364356       -2.5693580287       -1.5962101433
 H          4.7561428794       -3.5592448190       -0.4083538723
 O          3.2433012606       -1.9631928146        0.4576179821
 C          2.2081804319       -1.1171693060        0.8143753811
 O          1.3581622557       -1.6447985986        1.5615715237
 O          3.2943898573        1.8455930945       -0.9789515789
 C          1.0146437349        1.0414584290        0.7538469815
 C         -0.0109246692        1.1236763596       -0.3522679164
 C          0.2165665490        1.8627397383       -1.5088315935
 C         -0.7515291020        1.9336922338       -2.4934216520
 C         -1.9653142653        1.2876070733       -2.3397669701
 C         -2.1961762624        0.5340534929       -1.1947041043
 C         -1.2176041760        0.4526967595       -0.2139599347
 H         -1.4061504660       -0.1437146576        0.6674854527
 N         -3.4056109996       -0.1589497287       -1.0257783489
 S         -4.0363242995       -0.3131568627        0.5319831886
 O         -3.9051789652        0.9381278681        1.2444837354
 O         -3.4538176946       -1.4721495662        1.1604546869
 C         -5.7503116212       -0.6313400564        0.1561810559
 C         -6.1328946021       -1.9211518986       -0.1606490627
 C         -7.4585135563       -2.1667064876       -0.4815675509
 C         -8.3739776476       -1.1245887353       -0.4811888845
 C         -7.9756160245        0.1641769908       -0.1592646550
 C         -6.6511080761        0.4169999013        0.1616727138
 H         -6.2974122609        1.4002306549        0.4273686838
 H         -8.6903648127        0.9712441467       -0.1561978046
 H         -9.4051468729       -1.3190574110       -0.7303044679
 H         -7.7723159290       -3.1679497485       -0.7292108101
 H         -5.3876103475       -2.6993186818       -0.1377096311
 H         -4.1130570634        0.1125846272       -1.6948904234
 H         -2.7249997687        1.3562783969       -3.1036371548
 H         -0.5633517710        2.5097905595       -3.3868597082
 H          1.1636795549        2.3635882460       -1.6337143933
 H          0.5492649625        0.5001575856        1.5896245011
 C          1.4037042929        2.4244001348        1.2403477931
 C          0.4101442389        3.2066962095        2.0434685561
 C          1.6353550698        2.6488602879        2.7025140988
 H          2.4165920504        3.3315184724        3.0016135600
 H          1.5178781234        1.8021520159        3.3639003894
 H          0.3493129545        4.2733024109        1.8908375827
 H         -0.5406930867        2.7380016600        2.2537190744
 H          2.0333026252        2.9664115920        0.5476561732
