  62
        -98.93020279
 C         -2.4282631694       -1.2854973307        0.1597218794
 C         -2.3540454893        0.0010514051       -0.4261832169
 C         -3.6402973950        0.6210616388       -0.7995056145
 C         -4.7889204524       -0.0363012581       -0.5698538632
 C         -6.1965427236        0.3867315647       -0.9076449152
 C         -6.5877747117        1.8408795622       -0.6070880389
 C         -5.8852819020        2.4663638290        0.6067922072
 H         -6.6368843949        2.9168138134        1.2577201537
 H         -5.3750269616        1.6937040403        1.1844614051
 C         -4.8850154862        3.5587752708        0.2204378760
 H         -5.3320722937        4.1831595005       -0.5562023117
 H         -4.7074467931        4.1958946785        1.0901214671
 C         -3.5215672679        3.0634972256       -0.2613171395
 H         -2.9558392333        3.9275747901       -0.6183106822
 H         -2.9605612805        2.6403098372        0.5766641641
 C         -3.5565000491        2.0050924516       -1.3759276510
 H         -4.3632742994        2.1981273058       -2.0791104185
 H         -2.6052946448        2.0529984104       -1.9136025915
 H         -6.3950961735        2.4581795054       -1.4834694225
 H         -7.6671919431        1.8503111536       -0.4473107694
 H         -6.3683583148        0.1815153619       -1.9681848058
 H         -6.8391286590       -0.2904675760       -0.3401128333
 O         -4.8146139627       -1.2672045661        0.0156948131
 C         -3.6530937265       -1.9087776087        0.4074102403
 O         -3.8398994075       -3.0088340049        0.9642727442
 O         -1.2771080767        0.6159872715       -0.6397792606
 C         -1.1855579993       -2.0376842342        0.6031823925
 C         -0.2260520722       -1.1007073387        1.2959739759
 C         -0.6607934322       -0.4266938756        2.4345466219
 C          0.1739836011        0.4521804206        3.0957674858
 C          1.4621252249        0.6713170944        2.6409316828
 C          1.9122577786       -0.0083742883        1.5150574913
 C          1.0702880028       -0.8912254492        0.8532431569
 H          1.4329559386       -1.3828582583       -0.0326680854
 N          3.2383572989        0.1626279842        1.0786567530
 S          3.6646288452        0.0339157533       -0.5469971040
 O          2.9642344784        1.0143186114       -1.3458288689
 O          3.5450537995       -1.3412753757       -0.9605186763
 C          5.3907788338        0.4700163305       -0.4256676543
 C          6.2944973811       -0.5027483662       -0.0425461439
 C          7.6327990375       -0.1644856438        0.0788638176
 C          8.0437549051        1.1341099992       -0.1829971368
 C          7.1261075171        2.0994377123       -0.5689397082
 C          5.7858899310        1.7674338485       -0.6911086122
 H          5.0390387297        2.4820258074       -0.9983375829
 H          7.4487774773        3.1071793446       -0.7755689535
 H          9.0861211557        1.3947353771       -0.0888918054
 H          8.3495488211       -0.9132038396        0.3754178238
 H          5.9302845603       -1.4999599231        0.1411618317
 H          3.6733412741        0.9792734115        1.4867281333
 H          2.1129264115        1.3639263154        3.1530167617
 H         -0.1815567355        0.9773966006        3.9698461763
 H         -1.6722349847       -0.5907643868        2.7831241039
 H         -1.5447185471       -2.7635558326        1.3525761641
 C         -0.5282729857       -2.8480493222       -0.5041836131
 C         -1.3182948372       -3.3784037335       -1.6619326778
 C         -0.3114852753       -2.2904801830       -1.8775244384
 H          0.6125327883       -2.5279320609       -2.3855514759
 H         -0.6626634748       -1.2886011650       -2.0698043765
 H         -1.0917956207       -4.3700664880       -2.0236338041
 H         -2.3668278920       -3.1230240503       -1.7135586839
 H          0.2512661427       -3.4998431646       -0.1203250621
