  62
        -98.93773568
 C         -1.9285438186       -0.9391666838       -0.0016953969
 C         -2.4221144151        0.3761878357        0.1616594941
 C         -3.8435699003        0.4948212666        0.5336918501
 C         -4.5778126042       -0.6173334908        0.7073732140
 C         -6.0233219224       -0.7325126022        1.1226136986
 C         -7.0257866821        0.2347851350        0.4779089853
 C         -6.7024278323        0.6388321019       -0.9678828867
 H         -5.9120642051        0.0013257245       -1.3677831406
 H         -7.5890360219        0.4849307345       -1.5858179481
 C         -6.2887772490        2.1066622581       -1.0994913640
 H         -6.4329890321        2.4209028059       -2.1360805592
 H         -6.9513031005        2.7143027430       -0.4791813571
 C         -4.8379551259        2.4152549801       -0.7313773999
 H         -4.7077438002        3.4999963338       -0.7553392776
 H         -4.1665071496        1.9969859081       -1.4863784889
 C         -4.3774407210        1.8941808621        0.6398281158
 H         -5.1732237821        1.9680698208        1.3770574344
 H         -3.5374468427        2.5121389793        0.9691568446
 H         -7.1076987259        1.1341410114        1.0866759435
 H         -8.0005075336       -0.2550108381        0.5091362420
 H         -6.3045599568       -1.7615978417        0.8866151215
 H         -6.0736930158       -0.6264822866        2.2101638295
 O         -4.0545686388       -1.8667339850        0.5511275743
 C         -2.7326600901       -2.0609277057        0.1919261339
 O         -2.3974660657       -3.2580191374        0.0843762157
 O         -1.7140632837        1.4061033988        0.0148775271
 C         -0.4815955462       -1.1660995663       -0.4037569654
 C          0.4356444431       -0.5194491630        0.6050337376
 C          0.2919533294       -0.8635625405        1.9475916067
 C          1.0874591180       -0.2832263540        2.9151967210
 C          2.0528510195        0.6448727742        2.5642531060
 C          2.2095207422        0.9909728918        1.2282008268
 C          1.4083449294        0.4033022413        0.2567297624
 H          1.5409023956        0.7068386173       -0.7674770197
 N          3.1672319021        1.9452556740        0.8508281634
 S          4.1457327798        1.7080770678       -0.4816847698
 O          5.2022927996        2.6837451073       -0.3295341105
 O          3.3760653696        1.7849995391       -1.6961982118
 C          4.8028497663        0.0650793540       -0.2612841208
 C          5.8741135003       -0.1003742732        0.5952968832
 C          6.3568715087       -1.3777387743        0.8271910860
 C          5.7570742125       -2.4643241825        0.2083762332
 C          4.6830541753       -2.2812856742       -0.6485933367
 C          4.1979095927       -1.0050672313       -0.8880585861
 H          3.3686813347       -0.8240909379       -1.5515451389
 H          4.2191670349       -3.1268993422       -1.1310485344
 H          6.1300268786       -3.4596195905        0.3919296093
 H          7.1954660965       -1.5230117520        1.4889734380
 H          6.3182614111        0.7717542040        1.0471036591
 H          3.6965630372        2.3310722452        1.6187985356
 H          2.6694426322        1.1076938967        3.3197616998
 H          0.9576327196       -0.5547713814        3.9519919328
 H         -0.4656401749       -1.5860492226        2.2204153256
 H         -0.3249588312       -2.2539021217       -0.3624783716
 C         -0.2576600530       -0.6964264340       -1.8255121849
 C          0.7800590040       -1.3549840813       -2.6819672577
 C         -0.6752702985       -1.5839503982       -2.9577739703
 H         -1.1148399047       -1.1304778977       -3.8335728053
 H         -1.0994035724       -2.5447317098       -2.7035378287
 H          1.3456656964       -0.7425761806       -3.3690268607
 H          1.3383495454       -2.1709582901       -2.2479288906
 H         -0.4185976971        0.3689940781       -1.9469732452
