  62
        -98.94088353
 C         -2.5807154683       -0.2410294426        0.6077541809
 C         -2.4632789664        0.3859484901       -0.6582234154
 C         -2.2807790989        1.8428071649       -0.6367767348
 C         -2.1864740637        2.4919532522        0.5363641165
 C         -1.9675431143        3.9690568648        0.7178754875
 C         -0.4948414675        4.3875041021        0.6042044114
 C          0.0749319305        4.3980048724       -0.8152540239
 H         -0.5973445249        4.9500471121       -1.4733788749
 H          1.0170434292        4.9483205771       -0.7736582797
 C          0.3487719085        3.0062395028       -1.4024694718
 H          0.4115756387        2.2708642999       -0.5961906933
 H          1.3227686314        3.0114209320       -1.8984416793
 C         -0.6735326318        2.5364275933       -2.4379294297
 H         -0.4215801785        1.5121290420       -2.7244667520
 H         -0.6058944746        3.1650141932       -3.3294822198
 C         -2.1276789059        2.5453367007       -1.9522611479
 H         -2.4940494534        3.5691765355       -1.8784625102
 H         -2.7331732349        2.0073049205       -2.6862945502
 H         -0.4107852667        5.3966338423        1.0149909505
 H          0.1058370806        3.7205846878        1.2281697042
 H         -2.5644374175        4.5235163770       -0.0071227497
 H         -2.3207165845        4.2152016559        1.7216577489
 O         -2.2920889198        1.8545950463        1.7335173068
 C         -2.4559838214        0.4808547039        1.7962162690
 O         -2.4814205327        0.0237010776        2.9591216483
 O         -2.5058415226       -0.2243927412       -1.7572008758
 C         -2.6400966131       -1.7547912716        0.7380474924
 C         -1.5416061795       -2.3472133698       -0.1133667981
 C         -1.7145797294       -3.3863070060       -1.0159253811
 C         -0.6402496716       -3.8448024628       -1.7609098877
 C          0.6130494295       -3.2767845819       -1.6321563363
 C          0.7937492949       -2.2273052258       -0.7353314678
 C         -0.2737855700       -1.7957965259        0.0299721991
 H         -0.1258536978       -0.9937450284        0.7391671111
 N          2.0348659459       -1.5768994019       -0.6316529649
 S          2.4121998472       -0.6550508562        0.7234981218
 O          2.3243375917       -1.4643047287        1.9210770307
 O          1.6347222882        0.5581198988        0.7115221164
 C          4.1163998703       -0.2767218149        0.3646670983
 C          5.1189714355       -1.0566607214        0.9091687991
 C          6.4380578456       -0.7661573283        0.5975659861
 C          6.7300449296        0.2915053971       -0.2504933296
 C          5.7130309644        1.0666763584       -0.7879298368
 C          4.3923847283        0.7821225880       -0.4793951125
 H          3.5676741689        1.3602913639       -0.8632388153
 H          5.9437055305        1.8903942540       -1.4439840157
 H          7.7570669780        0.5156341649       -0.4915841228
 H          7.2309975017       -1.3640253115        1.0170025598
 H          4.8443682684       -1.8616903803        1.5717476005
 H          2.8152434650       -2.1378134342       -0.9426491325
 H          1.4417049644       -3.6259673385       -2.2287601187
 H         -0.7854666186       -4.6535865814       -2.4611241412
 H         -2.6899328041       -3.8236908493       -1.1527541291
 H         -2.3808368193       -1.9536758070        1.7926252131
 C         -4.0079072165       -2.3772535961        0.5063926012
 C         -5.2598433405       -1.5663110930        0.6565252633
 C         -4.8446751639       -2.0601790945       -0.6950110662
 H         -5.4168587033       -2.8596198619       -1.1429230087
 H         -4.4454937361       -1.3525835132       -1.4033557382
 H         -6.1122176831       -2.0232326758        1.1368751068
 H         -5.1473735857       -0.5135663008        0.8736772340
 H         -4.0539899281       -3.3973828607        0.8759327963
