  62
        -98.94180879
 C         -2.7679789461       -0.4146624707       -0.3076747237
 C         -2.0206751134        0.4453602927       -1.1491175193
 C         -2.1328457432        1.8834691872       -0.8643481412
 C         -2.9463952789        2.3070171626        0.1183025902
 C         -3.1214574103        3.7371473795        0.5373399910
 C         -2.1542798893        4.1123368111        1.6684087518
 C         -0.7010513728        3.7161090212        1.4045002046
 H         -0.1085162423        4.0752597999        2.2492565559
 H         -0.6123380320        2.6263618163        1.4010958782
 C         -0.1140816890        4.2695840307        0.0988677413
 H          0.8900068124        4.6465753691        0.3039495857
 H         -0.7139942991        5.1104663248       -0.2524948312
 C          0.0195255852        3.2327752803       -1.0183139406
 H          0.6671928993        3.6506410726       -1.7942783330
 H          0.5086763490        2.3396339307       -0.6183807986
 C         -1.2936062255        2.8139157152       -1.6934964906
 H         -1.8623434279        3.7021192955       -1.9762825816
 H         -1.0425331174        2.2616794342       -2.6036925434
 H         -2.2138946847        5.1907088318        1.8278772470
 H         -2.4814635022        3.6145334345        2.5842540891
 H         -4.1457880299        3.8670026966        0.8910980554
 H         -2.9595030820        4.3840205760       -0.3226288963
 O         -3.6876438438        1.4579933000        0.8748685076
 C         -3.5882418697        0.0888990725        0.7075112131
 O         -4.2853966818       -0.5726028751        1.5033483678
 O         -1.2893867746        0.0602747120       -2.1017341610
 C         -2.6896962532       -1.9348630236       -0.3815068137
 C         -1.4241915943       -2.3741102057        0.3158430360
 C         -1.4638175102       -3.0445603196        1.5327005516
 C         -0.2951210947       -3.3429507675        2.2129283295
 C          0.9349445818       -2.9621948513        1.7053680248
 C          0.9810274557       -2.2957602067        0.4891720070
 C         -0.1860613195       -2.0285755617       -0.2064820886
 H         -0.1372251222       -1.4903170344       -1.1412653759
 N          2.2277618908       -1.8312934466       -0.0112780867
 S          2.7221863677       -0.4553309833        0.8513433935
 O          3.0981572810       -0.8774667750        2.1772632372
 O          1.7085754232        0.5745224761        0.7773980531
 C          4.1697847768        0.0274925238       -0.0690943074
 C          4.0536468043        0.9912850688       -1.0519643567
 C          5.1752249025        1.3312760222       -1.7921766534
 C          6.3846558445        0.7010329457       -1.5410579891
 C          6.4844669124       -0.2658638810       -0.5515618438
 C          5.3674599282       -0.6095017935        0.1929197486
 H          5.3972175854       -1.3485899280        0.9760624416
 H          7.4270376029       -0.7523294347       -0.3590637002
 H          7.2551211041        0.9670951692       -2.1196830524
 H          5.0996530315        2.0836192974       -2.5607540185
 H          3.0945188762        1.4595250250       -1.2096921414
 H          2.1230216476       -1.5482610479       -0.9795403061
 H          1.8491003776       -3.1447248286        2.2461704810
 H         -0.3442427324       -3.8603835192        3.1592678551
 H         -2.4220074376       -3.3046458590        1.9595238007
 H         -3.5433372315       -2.3072001921        0.2000836539
 C         -2.7909764627       -2.4841775449       -1.7898004810
 C         -3.1844734875       -3.9172039514       -1.9796802362
 C         -4.1396306124       -2.8223354757       -2.3467758048
 H         -4.3278028999       -2.6273831514       -3.3917954721
 H         -4.9978083622       -2.6585341187       -1.7111060908
 H         -2.7158749297       -4.4785226179       -2.7732500730
 H         -3.3964466169       -4.4983031323       -1.0948897404
 H         -2.0651982691       -2.0645361450       -2.4729792240
