  62
        -98.93281843
 C         -2.4849394677       -1.0856594648        0.4925773988
 C         -2.4520456068        0.2390284304       -0.0057051550
 C         -3.6375184399        1.0713130840        0.2791124273
 C         -4.6470754324        0.5663068322        1.0067663932
 C         -5.9215746927        1.2415347151        1.4484053770
 C         -6.6509448945        2.1223530777        0.4250585466
 C         -6.5401700379        1.6520804875       -1.0325633169
 H         -6.1236266726        0.6439821012       -1.0703081195
 H         -7.5402635421        1.6068643165       -1.4677453604
 C         -5.6929579589        2.5869691681       -1.8991071591
 H         -5.9487438129        2.4207957510       -2.9483958656
 H         -5.9544965395        3.6198081434       -1.6589380444
 C         -4.1805927849        2.4107766686       -1.7686143503
 H         -3.6984251429        3.2036061551       -2.3454646332
 H         -3.8796190098        1.4605418092       -2.2184073706
 C         -3.6315776668        2.4427460336       -0.3327322882
 H         -2.5820268093        2.7457421331       -0.3800445295
 H         -4.1727888496        3.1594279734        0.2799792831
 H         -7.7010689247        2.1446898892        0.7213950575
 H         -6.2837346265        3.1451497495        0.4966680119
 H         -6.5783766049        0.4271974316        1.7640306059
 H         -5.6987265192        1.8371452550        2.3385419172
 O         -4.6177148416       -0.7039601309        1.5027236589
 C         -3.5508590081       -1.5514382737        1.2651555145
 O         -3.6639190478       -2.6758405799        1.7935466462
 H          0.7770449116       -1.4923773266       -1.4190903141
 C          0.9547314838       -1.1803051585       -0.4015529520
 C         -0.0208324045       -1.3770042381        0.5619842434
 C          0.2309061213       -0.9414567700        1.8603736179
 C          1.4211142321       -0.3173709778        2.1792156924
 C          2.3895044804       -0.1150643934        1.2112018514
 C          2.1510938663       -0.5485884130       -0.0848686653
 N          3.1244786239       -0.3345984288       -1.0745366872
 S          4.7104970836       -0.7738919867       -0.7580425107
 O          5.3012730336       -1.0213469928       -2.0554734750
 O          4.7780720622       -1.8577858217        0.1948024710
 C          5.4364754756        0.6963501715       -0.0641609354
 C          5.3887952060        1.8589089920       -0.8081531053
 C          5.9567096361        3.0104356108       -0.2872418664
 C          6.5614647861        2.9797860212        0.9606351761
 C          6.6040390719        1.8038752103        1.6938144705
 C          6.0371202840        0.6485578636        1.1784341878
 H          6.0432971122       -0.2873037848        1.7144335243
 H          7.0751256447        1.7821272999        2.6634441780
 H          7.0023327124        3.8777728734        1.3639197108
 H          5.9254633185        3.9268185253       -0.8544211648
 H          4.9128378353        1.8404888930       -1.7744295191
 H          2.8398003253       -0.6215990077       -1.9994277786
 H          3.3190880271        0.3748229018        1.4510746917
 H          1.5974853216        0.0181196336        3.1901080955
 H         -0.5277219749       -1.0948081545        2.6165791987
 C         -1.3369887841       -2.0560948370        0.2728111884
 H         -1.4805379571       -2.8389584928        1.0360663033
 C         -1.3684701408       -2.7616009368       -1.0751673498
 C         -2.6696174600       -3.0506659658       -1.7608667496
 C         -1.7183788839       -2.0544393003       -2.3488678304
 H         -1.1860848490       -2.3272143320       -3.2490059453
 H         -1.9628240272       -1.0059850070       -2.2879550362
 H         -2.7894341236       -4.0039875560       -2.2533385218
 H         -3.5722701528       -2.6854346060       -1.2926894486
 H         -0.6102874686       -3.5368997320       -1.1407617817
 O         -1.4888817079        0.7227862664       -0.6529010697
