  62
        -98.94455899
 C         -1.2120717903       -1.1823607464        0.1630129536
 C         -2.0136224843       -0.6247905024        1.1910851527
 C         -2.6570092858        0.6612320425        0.8906422408
 C         -2.4178245432        1.2535516185       -0.2929140313
 C         -3.0466835165        2.5361305756       -0.7531751454
 C         -4.3470363681        2.2705065565       -1.5247897694
 C         -5.3072814756        1.3214349589       -0.8078984413
 H         -6.2011545183        1.2323101946       -1.4288837227
 H         -4.8543240196        0.3288219656       -0.7530994838
 C         -5.7089825419        1.7716265910        0.6036900969
 H         -5.4952735472        2.8336827714        0.7294992636
 H         -6.7870436584        1.6419598624        0.7196971117
 C         -5.0429166464        0.9851489007        1.7345472682
 H         -5.1775137038       -0.0864456967        1.5653750189
 H         -5.5528532452        1.2340199979        2.6690573610
 C         -3.5474437199        1.2553008341        1.9448870757
 H         -3.3753413553        2.3303056323        2.0340606790
 H         -3.2517431175        0.7839729930        2.8872211438
 H         -4.8434295772        3.2259858359       -1.7032424384
 H         -4.0928815627        1.8325917370       -2.4926812831
 H         -3.2463121918        3.1660917728        0.1116161925
 H         -2.3436338265        3.0525604060       -1.4088797906
 O         -1.5979869409        0.7193591144       -1.2312101456
 C         -0.9656606026       -0.5048957419       -1.0317766551
 O         -0.2329739323       -0.8488763838       -1.9752090880
 O         -2.1830256330       -1.1785075873        2.3111540494
 C         -0.5336441614       -2.5113382067        0.4404647813
 C          0.9317447306       -2.4258865446        0.0950887473
 C          1.5457139749       -3.2179840951       -0.8656594567
 C          2.8978923976       -3.0790369859       -1.1248251919
 C          3.6599611350       -2.1519822410       -0.4388780876
 C          3.0555692554       -1.3545230802        0.5270490042
 C          1.7031569215       -1.5004239169        0.7888381790
 H          1.2414637845       -0.8778933484        1.5422652249
 N          3.8137818075       -0.4238375681        1.2608382058
 S          3.2616545872        1.1360024694        1.4859482989
 O          4.4113839034        1.8481691927        2.0006976342
 O          2.0872125660        1.1370978219        2.3206262224
 C          2.8715034326        1.7332546139       -0.1460682760
 C          3.9105626527        2.1211176445       -0.9700011979
 C          3.6227920702        2.5381850785       -2.2587328974
 C          2.3084663772        2.5526782256       -2.7014815873
 C          1.2771788852        2.1645460093       -1.8611974677
 C          1.5597643051        1.7492825487       -0.5699387709
 H          0.7838302732        1.4372319497        0.1124809987
 H          0.2554902042        2.1587753326       -2.2057594293
 H          2.0829803906        2.8690744456       -3.7076604584
 H          4.4207886788        2.8460348472       -2.9150531883
 H          4.9164110178        2.1060146847       -0.5824754150
 H          4.7949444005       -0.4143978621        1.0206201407
 H          4.7141839456       -2.0440857176       -0.6439619387
 H          3.3630967257       -3.6965147101       -1.8780069725
 H          0.9617392330       -3.9292253572       -1.4258778527
 H         -0.6103246962       -2.6305433679        1.5349091293
 C         -1.2343046419       -3.7142558912       -0.1731509777
 C         -2.7165572134       -3.7073863870       -0.3957101881
 C         -1.7832629932       -3.7060491407       -1.5671709645
 H         -1.7007141125       -4.6095213430       -2.1535697615
 H         -1.6760266083       -2.8004126354       -2.1426111623
 H         -3.2735997110       -4.6062696603       -0.1778039656
 H         -3.2511483557       -2.7971088301       -0.1650648661
 H         -0.8078339246       -4.6496195466        0.1765514546
