  62
        -98.94400586
 C         -1.6906549808       -1.3786215898       -0.2781419900
 C         -2.7891148805       -0.7313759492        0.3297981098
 C         -3.2031511501        0.5502108907       -0.2624923608
 C         -2.5430508799        1.0268712200       -1.3321269510
 C         -2.8170597595        2.2833398898       -2.1205889115
 C         -3.1279094090        3.5624424102       -1.3325443120
 C         -2.4041345789        3.6898390605        0.0160749679
 H         -1.6082441892        2.9455616003        0.0967137282
 H         -1.9273035386        4.6709239104        0.0715112875
 C         -3.3501300289        3.5639816214        1.2129623180
 H         -4.2566940387        4.1383406116        1.0069665377
 H         -2.8678307988        4.0117242016        2.0855316078
 C         -3.7381249694        2.1367889717        1.5953795186
 H         -2.8636799796        1.6190077916        2.0007484288
 H         -4.4793221294        2.1915470323        2.3968627086
 C         -4.3052310698        1.2755352214        0.4543188690
 H         -4.9383346001        0.5023069418        0.8984696393
 H         -4.9086046596        1.8709824713       -0.2265907713
 H         -4.2019913590        3.6366928907       -1.1655924820
 H         -2.8504048487        4.4015237099       -1.9730865324
 H         -1.9192105594        2.4380845492       -2.7237384916
 H         -3.6415066496        2.0796219698       -2.8107939714
 O         -1.5026441502        0.3577542394       -1.9011545607
 C         -1.0211529806       -0.8222010805       -1.3655799302
 O         -0.0165729008       -1.2796334912       -1.9465017301
 H         -0.1501871304       -0.4550203597        1.4776191996
 C          0.6161265793       -1.2019794000        1.3302719399
 C          0.2896436889       -2.4258793601        0.7604692404
 C          1.2977005485       -3.3689280906        0.6031399008
 C          2.5983090386       -3.0763463509        0.9778963906
 C          2.9276367591       -1.8331648908        1.4867986201
 C          1.9235735295       -0.8877779903        1.6578564997
 N          2.1949395599        0.4151173998        2.1304105092
 S          1.9490555304        1.6487549494        1.0158395186
 O          2.3573136108        2.8588322695        1.6974558581
 O          0.5943707903        1.6152462997        0.5322394987
 C          3.1179830002        1.2784103384       -0.2800480212
 C          4.3590919904        1.8853739280       -0.2324184615
 C          5.3128481603        1.5418356672       -1.1760165214
 C          5.0148821299        0.5903414069       -2.1403780610
 C          3.7667598897       -0.0114101526       -2.1716466507
 C          2.8038698598        0.3309042081       -1.2334477008
 H          1.8248330797       -0.1234489615       -1.2481574106
 H          3.5255996394       -0.7514858629       -2.9178078904
 H          5.7579476998        0.3163812964       -2.8726391309
 H          6.2828760204        2.0118255869       -1.1546021616
 H          4.5429177107        2.6202333082        0.5348865682
 H          3.1192355100        0.5177368096        2.5283646591
 H          3.9477870192       -1.5927321610        1.7458776500
 H          3.3703213684       -3.8193610512        0.8489258609
 H          1.0659793382       -4.3320431106        0.1784398812
 C         -1.1415276112       -2.6528409298        0.3367280505
 H         -1.7489376413       -2.8322181892        1.2368445806
 C         -1.3080668117       -3.8238592701       -0.6091646190
 C         -1.5119506522       -5.2094146798       -0.0747695384
 C         -2.6508483019       -4.4795984597       -0.7189906186
 H         -2.9894920520       -4.8015815200       -1.6922364285
 H         -3.4395939317       -4.0980313391       -0.0870580588
 H         -1.5345638322       -5.3342325394        0.9972841417
 H         -1.0704760925       -6.0377481202       -0.6081306280
 H         -0.7337924016       -3.7033619307       -1.5208959190
 O         -3.3992117207       -1.2046685185        1.3280428200
