  62
        -98.94431647
 C          2.6534949651        1.0899647237        0.1819877616
 C          2.7142285301        0.2759352781       -0.9753396115
 C          3.5128116852       -0.9496553759       -0.8475595322
 C          4.1422508475       -1.2224158637        0.3098563554
 C          5.0088982766       -2.4215059397        0.5848924638
 C          4.2263428877       -3.6733276174        1.0053588807
 C          3.4357429788       -4.3530343441       -0.1134994186
 H          4.0948201944       -4.5359943691       -0.9625636578
 H          3.1153546452       -5.3252865152        0.2661501089
 C          2.1980831014       -3.5725567063       -0.5786845300
 H          1.3464467692       -4.2520758550       -0.6569543947
 H          1.9387044279       -2.8215249481        0.1715496209
 C          2.3553482848       -2.8831157444       -1.9341894205
 H          1.4372617667       -2.3285077639       -2.1449648380
 H          2.4826669952       -3.6359793624       -2.7150153370
 C          3.5296225171       -1.8982440746       -2.0078639945
 H          4.4745779769       -2.4394310508       -2.0462019881
 H          3.4244841686       -1.3075215887       -2.9209077492
 H          4.9485789515       -4.3919865206        1.3994292665
 H          3.5486643056       -3.4046443416        1.8194225722
 H          5.6125973694       -2.6466455584       -0.2945374875
 H          5.6760866365       -2.1419688948        1.4031163384
 O          4.0708294607       -0.4038533526        1.3945155208
 C          3.3060912355        0.7523715565        1.3662147355
 O          3.2861677241        1.3824818222        2.4445143491
 H          0.3607116961        0.3483596019        1.1009996964
 C         -0.2143936433        0.9550429499        0.4106530341
 C          0.3923109929        2.0512977026       -0.1901981282
 C         -0.3638732131        2.8302728203       -1.0560572083
 C         -1.6811417791        2.5012947616       -1.3263087488
 C         -2.2724062663        1.3959280767       -0.7436206947
 C         -1.5304916423        0.6177768127        0.1356581729
 N         -2.1182509382       -0.5151484694        0.7262048885
 S         -3.6009493097       -0.3285613751        1.4926302741
 O         -3.7605917471        1.0078615750        2.0178923226
 O         -3.6667938086       -1.4079396043        2.4539288632
 C         -4.7914305345       -0.6254083973        0.2028381670
 C         -5.7943724624        0.2945558983       -0.0321858464
 C         -6.7187051408        0.0365615196       -1.0326808022
 C         -6.6239606914       -1.1301647379       -1.7756998913
 C         -5.6114967130       -2.0447275157       -1.5256140792
 C         -4.6854658406       -1.7940495885       -0.5257400522
 H         -3.8853807046       -2.4789359010       -0.2991169791
 H         -5.5400135525       -2.9502323824       -2.1063711544
 H         -7.3430347776       -1.3281153392       -2.5548278594
 H         -7.5066059210        0.7459486163       -1.2284947574
 H         -5.8236198881        1.1911149205        0.5662187018
 H         -1.4853603291       -1.0424291448        1.3099305726
 H         -3.2950452339        1.1320809870       -0.9584196901
 H         -2.2544773861        3.1130350798       -2.0058913289
 H          0.0795458017        3.6941660810       -1.5231432249
 C          1.8278835704        2.3625732511        0.1617335088
 H          1.8460909306        2.7560871862        1.1894152318
 C          2.4675397209        3.3802887460       -0.7605847410
 C          2.3386221477        4.8462267976       -0.4789420697
 C          3.6509891967        4.1549344619       -0.2667355249
 H          4.4597084659        4.3560012848       -0.9530856553
 H          3.9757255993        3.9681582961        0.7469784303
 H          2.2496966513        5.5259834105       -1.3129541342
 H          1.7757015796        5.1411445706        0.3939154580
 H          2.4787173222        3.0533609000       -1.7939021562
 O          2.1326994798        0.5538241522       -2.0550098005
