  62
        -98.94472222
 C          2.0054629017        1.3677316994        0.2980366008
 C          2.6412366361        0.7532850831       -0.8079425575
 C          3.7937582368       -0.1018380774       -0.4874745492
 C          4.1751564913       -0.2441321345        0.7949776605
 C          5.2931336688       -1.1284516137        1.2646033300
 C          4.7800854108       -2.5327317568        1.6135432300
 C          3.8937596163       -3.1529612954        0.5330623155
 H          3.6136406921       -4.1517733700        0.8752559078
 H          2.9712392588       -2.5731795128        0.4495031056
 C          4.5534448470       -3.2524521513       -0.8495119059
 H          5.6356331373       -3.1599395175       -0.7506451414
 H          4.3489492225       -4.2419163191       -1.2639282370
 C          4.0482039511       -2.2296457541       -1.8690763885
 H          4.4130863758       -2.5258783728       -2.8561263603
 H          2.9556534122       -2.2550328280       -1.9044471780
 C          4.4895794504       -0.7794186968       -1.6339693873
 H          4.2254714993       -0.2043623258       -2.5262588569
 H          5.5733209350       -0.7402148088       -1.5071605113
 H          5.6399698074       -3.1797399099        1.7956947385
 H          4.2003780908       -2.4704826071        2.5375890094
 H          5.7346544550       -0.6810270323        2.1566755211
 H          6.0519827830       -1.1901495932        0.4872102289
 O          3.5420910716        0.3670358628        1.8291549488
 C          2.4346304398        1.1710982104        1.6096824128
 O          1.9246072766        1.6405504828        2.6479206760
 O          2.2666953755        0.9068115022       -1.9989981034
 C          0.7940323790        2.2549704488        0.0747201549
 C         -0.3007777282        1.4707109933       -0.6080844060
 C         -1.0308968348        1.9533055743       -1.6856893623
 C         -2.0189132537        1.1768848797       -2.2677859527
 C         -2.3071215930       -0.0859046869       -1.7856962333
 C         -1.5982745606       -0.5690943133       -0.6922781347
 C         -0.6125528661        0.2113549746       -0.1090952540
 H         -0.0600935801       -0.1680294891        0.7424128091
 N         -1.8975501569       -1.8427664111       -0.1797514061
 S         -3.5102444979       -2.2518371600        0.0051359739
 O         -3.5355849525       -3.2100179731        1.0881401490
 O         -4.0406675499       -2.7129153413       -1.2536037346
 C         -4.3276284329       -0.7398468027        0.4846356203
 C         -3.9105890650       -0.1133203555        1.6424255274
 C         -4.5112286910        1.0785206932        2.0132571695
 C         -5.5142981413        1.6207554602        1.2240871439
 C         -5.9260287623        0.9765630534        0.0680102912
 C         -5.3268344639       -0.2147258206       -0.3090640053
 H         -5.6134121642       -0.7469350397       -1.2014100338
 H         -6.7075738723        1.3994697184       -0.5422679710
 H         -5.9767421182        2.5507779467        1.5145722426
 H         -4.1912649411        1.5802409105        2.9125162918
 H         -3.1308583849       -0.5616368438        2.2376736193
 H         -1.3579408710       -2.0972833155        0.6339700520
 H         -3.0584181854       -0.7100341133       -2.2415915660
 H         -2.5691062446        1.5594724327       -3.1136032246
 H         -0.8194012598        2.9336736658       -2.0789909385
 H          0.4359799498        2.5373089065        1.0757078898
 C          1.1959190506        3.5111739942       -0.6696358983
 C          0.4458265816        4.7899951485       -0.4528312203
 C          1.8301272621        4.6305865318        0.0980710967
 H          2.6378955728        5.1792657446       -0.3625426149
 H          1.9478162325        4.4956042956        1.1637342043
 H          0.3047083049        5.4541147713       -1.2921162810
 H         -0.3795398100        4.7741116773        0.2425742985
 H          1.5827993884        3.3018515466       -1.6601385530
