  62
        -98.94117836
 C         -1.8908440281       -0.9037404045        0.2501220497
 C         -2.3226708903        0.0740296031        1.1802406318
 C         -2.5853764687        1.4113868336        0.6398612464
 C         -2.3398035343        1.6634169688       -0.6582603007
 C         -2.5217135920        2.9858808583       -1.3531103752
 C         -3.9577030287        3.2519172880       -1.8259474467
 C         -4.9596437423        3.5707447637       -0.7154599231
 H         -4.5650622068        4.3738221741       -0.0923777674
 H         -5.8639803642        3.9457465858       -1.1985174164
 C         -5.3325216595        2.3699339681        0.1651081427
 H         -6.4159133489        2.3390244171        0.2999814305
 H         -5.0460876909        1.4451378854       -0.3411779178
 C         -4.7032288964        2.3856307733        1.5583339528
 H         -5.0057560371        1.4752746190        2.0821860405
 H         -5.0820093484        3.2406683576        2.1223512066
 C         -3.1696003266        2.4426403868        1.5576092665
 H         -2.8283556154        3.4388013778        1.2758180524
 H         -2.8144340822        2.2250201428        2.5681034422
 H         -4.3039900034        2.3842853034       -2.3922345064
 H         -3.9220938345        4.1030369418       -2.5097313480
 H         -1.8651100665        2.9676559312       -2.2258002247
 H         -2.1968982481        3.7913080766       -0.6934615397
 O         -1.8660423272        0.7158738964       -1.5084920366
 C         -1.6300013257       -0.5847177514       -1.0840469096
 O         -1.2077817661       -1.3361507321       -1.9832095324
 O         -2.4778006983       -0.1606942137        2.4099005508
 C         -1.5831142106       -2.2935526288        0.7795739027
 C         -0.2215546451       -2.7208789158        0.2918360199
 C          0.0298047417       -3.9081472019       -0.3815601881
 C          1.3066137141       -4.1972151094       -0.8322030991
 C          2.3475792191       -3.3099546162       -0.6355688870
 C          2.1074045765       -2.1226425029        0.0485172522
 C          0.8372500830       -1.8509051204        0.5243106877
 H          0.6585764737       -0.9226147055        1.0496793897
 N          3.1463012455       -1.2034931946        0.2848637673
 S          2.7685921207        0.4417930531        0.3113018685
 O          2.2567326013        0.7771400979        1.6178968369
 O          1.9347092224        0.7966095523       -0.8153015104
 C          4.4012418253        1.1342727057        0.1183619750
 C          4.8226606094        1.5425176527       -1.1328689993
 C          6.1063212563        2.0456922892       -1.2769553328
 C          6.9432544562        2.1274967176       -0.1742305605
 C          6.5059024014        1.7144242962        1.0756359642
 C          5.2232796445        1.2119681692        1.2268637386
 H          4.8347955469        0.8872145970        2.1779209315
 H          7.1581381473        1.7822531160        1.9312473523
 H          7.9417750699        2.5184400279       -0.2893727371
 H          6.4472173208        2.3705009158       -2.2467740474
 H          4.1332290085        1.4661299939       -1.9586693376
 H          3.9600380811       -1.3822082536       -0.2883554038
 H          3.3360319849       -3.5266538931       -1.0112779339
 H          1.4882257308       -5.1193928265       -1.3632472651
 H         -0.7770952144       -4.5938402161       -0.5810557616
 H         -1.5205706367       -2.1568643601        1.8733258979
 C         -2.6755588262       -3.3230493382        0.5341302129
 C         -4.0993501231       -2.9021273870        0.3288712688
 C         -3.3237797875       -3.4982982749       -0.8052924670
 H         -3.5752235339       -4.4990535622       -1.1249844543
 H         -2.9957987537       -2.8520253943       -1.6039888561
 H         -4.8797065093       -3.4903796467        0.7879330444
 H         -4.3075619660       -1.8420647416        0.3045613217
 H         -2.5240619141       -4.2224536753        1.1231638160
