  62
        -98.94495690
 C          1.9033941857        0.7232909559       -0.1474652823
 C          2.4797712558        0.1026526771        0.9858320583
 C          3.5424560880       -0.8741262669        0.7139923480
 C          3.8687649057       -1.1516519722       -0.5618157369
 C          4.9659963466       -2.0856101719       -0.9812861672
 C          6.2952980456       -1.3373559033       -1.1540960974
 C          6.6548841398       -0.4358708396        0.0270232634
 H          7.6245686186        0.0159848144       -0.1925278591
 H          5.9280933153        0.3772819015        0.0887724685
 C          6.7220964216       -1.1584235551        1.3797726024
 H          6.8138182947       -2.2336272654        1.2215541314
 H          7.6203410718       -0.8309659959        1.9074267026
 C          5.5363573952       -0.8819652120        2.3059289593
 H          5.7870707058       -1.2590681729        3.3010073696
 H          5.3842498343        0.1967418378        2.3936137253
 C          4.2053566351       -1.5246617257        1.8957071230
 H          3.5090334529       -1.4085883068        2.7316179345
 H          4.3516419362       -2.5921062762        1.7174607573
 H          7.0872867700       -2.0725566087       -1.3078974380
 H          6.2287246375       -0.7168896940       -2.0507922486
 H          4.6867411897       -2.5377091927       -1.9345660221
 H          5.0734689145       -2.8714349683       -0.2359674727
 O          3.2583704693       -0.5717692860       -1.6263772104
 C          2.2682262877        0.3850403083       -1.4509637861
 O          1.8020891990        0.8419085435       -2.5107603592
 O          2.1169366707        0.3489784512        2.1685216794
 C          0.8199295444        1.7665628200        0.0579980528
 C         -0.4712896396        1.3053979552       -0.5722297635
 C         -1.2521260586        2.1048674625       -1.3957958499
 C         -2.4204616116        1.6098688525       -1.9505327832
 C         -2.8406494903        0.3193698329       -1.6894488008
 C         -2.0791098616       -0.4811401537       -0.8462072699
 C         -0.9114672549        0.0173699405       -0.2901003542
 H         -0.3175938501       -0.6098228204        0.3633998226
 N         -2.5030999589       -1.7880503650       -0.5582636533
 S         -4.1271757534       -2.0577153762       -0.2672266836
 O         -4.1676927827       -3.2226000179        0.5890811443
 O         -4.8333528151       -2.1747424871       -1.5189458414
 C         -4.7007652466       -0.6152715081        0.6132051319
 C         -5.7337293266        0.1399287376        0.0964887078
 C         -6.1505013939        1.2673560503        0.7861035155
 C         -5.5274163051        1.6199584303        1.9729045571
 C         -4.4929842310        0.8489033441        2.4811107514
 C         -4.0739177208       -0.2805619179        1.7972109124
 H         -3.2748370699       -0.9017439563        2.1696115420
 H         -4.0086336614        1.1240874803        3.4043327125
 H         -5.8487903998        2.5001206915        2.5070133702
 H         -6.9557548060        1.8674212541        0.3941273005
 H         -6.1871476244       -0.1690035446       -0.8312917043
 H         -1.9174410192       -2.2800755277        0.0994210270
 H         -3.7346732115       -0.0864971604       -2.1341411113
 H         -3.0098017312        2.2375513766       -2.6011202899
 H         -0.9406685242        3.1124344365       -1.6154916421
 H          0.6679645211        1.8167620990        1.1466191538
 C          1.2891218660        3.1205198532       -0.4307101253
 C          0.7616339284        4.3750293108        0.1969068756
 C          2.1721642924        3.9425013568        0.4582310309
 H          2.9783429919        4.5028621855        0.0088912370
 H          2.4129426624        3.5368412137        1.4302304947
 H          0.6005347335        5.2376896816       -0.4316874731
 H          0.0442973539        4.2703626728        0.9965006683
 H          1.5047426341        3.1274393731       -1.4932077242
