  62
        -98.94419152
 C         -1.6899738902       -1.2969223860        0.2623344986
 C         -1.2962768539       -0.2264077171       -0.5704554241
 C         -1.8571076058        1.0963697006       -0.2523849053
 C         -2.6870118522        1.2165168216        0.7979419695
 C         -3.3963925955        2.4551429819        1.2719829071
 C         -4.7892726624        2.5725525937        0.6290865215
 C         -4.8203486734        3.2959129003       -0.7165870111
 H         -4.6263695764        4.3584487007       -0.5562138796
 H         -5.8346632163        3.2029814892       -1.1113381673
 C         -3.8349889279        2.7700605902       -1.7629566385
 H         -4.1894486424        3.0865675248       -2.7456765457
 H         -3.8373334604        1.6787182213       -1.7522899676
 C         -2.4033661414        3.2885224185       -1.5593666491
 H         -2.4153041530        4.1013007086       -0.8336732585
 H         -2.0351538948        3.7143300320       -2.4950685018
 C         -1.3848497121        2.2251352556       -1.1275343229
 H         -0.5412270235        2.7106219826       -0.6226537893
 H         -0.9751305210        1.7346281068       -2.0164823281
 H         -5.4465940109        3.1088283305        1.3165401083
 H         -5.1905415395        1.5623185964        0.5144872266
 H         -2.7944788051        3.3385060050        1.0797968367
 H         -3.5174474947        2.3460174634        2.3520267625
 O         -3.0474059487        0.1556880648        1.5737268115
 C         -2.5451206369       -1.1116679643        1.3456010018
 O         -2.9291941795       -1.9773907699        2.1603080720
 O         -0.5064133115       -0.3694409842       -1.5421877995
 C         -1.1066583246       -2.6789837626        0.0326347710
 C          0.4009647223       -2.5963252300        0.0019641468
 C          1.1867540603       -3.3242499441       -0.8831687764
 C          2.5640315769       -3.1843640475       -0.8784511786
 C          3.1837267871       -2.3023102902       -0.0121686207
 C          2.4067424236       -1.5787574502        0.8847816204
 C          1.0334091767       -1.7541118317        0.9077335756
 H          0.4464659646       -1.1853595872        1.6146858442
 N          2.9812868903       -0.6485076418        1.7772700972
 S          2.5526172784        0.9608530250        1.5772424925
 O          3.3234972922        1.6777200807        2.5715191091
 O          1.1221512030        1.1078170611        1.6523083406
 C          3.1607564324        1.3794877816       -0.0474668571
 C          4.3838631277        2.0159128616       -0.1462666786
 C          4.9021551870        2.2857114968       -1.4020302100
 C          4.1959311538        1.9062604885       -2.5338759951
 C          2.9727507828        1.2651272615       -2.4164667889
 C          2.4444508498        0.9943554080       -1.1628091866
 H          1.4912968504        0.4998979182       -1.0533076792
 H          2.4173586895        0.9665361404       -3.2910534442
 H          4.5995856750        2.1118298703       -3.5127854997
 H          5.8524644617        2.7865212705       -1.4940078436
 H          4.8938314318        2.2938601833        0.7621014201
 H          3.9891598468       -0.7114412484        1.8332378072
 H          4.2552379162       -2.1709120035       -0.0279499358
 H          3.1607993326       -3.7552969914       -1.5731906881
 H          0.7187640903       -3.9967459467       -1.5834501317
 H         -1.4047290483       -3.2857970703        0.9007260808
 C         -1.6965900762       -3.2944832290       -1.2205412148
 C         -1.8919771876       -4.7769108177       -1.3202715773
 C         -3.0766534656       -3.8741246654       -1.1572329135
 H         -3.7372556458       -3.7283437852       -1.9987066107
 H         -3.5778116590       -3.8498057398       -0.2001482513
 H         -1.7433248061       -5.2538807684       -2.2773294251
 H         -1.5966543306       -5.3790414533       -0.4743092146
 H         -1.4229160772       -2.7500832996       -2.1171414082
