  62
        -98.93938941
 C          2.4426919536        1.2418492905        0.0094077673
 C          3.1714492395        0.4974124443        0.9640720072
 C          3.8738114972       -0.6985976027        0.4677417499
 C          3.7739374754       -1.0194452512       -0.8341228650
 C          4.3547226139       -2.2222432045       -1.5247831541
 C          3.3261605112       -3.3648492940       -1.5786371506
 C          3.3116696043       -4.2778089925       -0.3528606249
 H          2.4558741620       -4.9487917773       -0.4589245060
 H          4.2136956587       -4.8932760148       -0.3531750576
 C          3.2093002666       -3.5618401111        0.9966577648
 H          2.4699874693       -2.7607053886        0.9305194265
 H          2.8377693208       -4.2813594501        1.7291545582
 C          4.5528429137       -3.0007146768        1.4867805845
 H          5.3546185396       -3.4240266824        0.8822518691
 H          4.7291361239       -3.3325794973        2.5119324828
 C          4.6637012699       -1.4682079115        1.4911897545
 H          5.7180177445       -1.1869419120        1.4019837787
 H          4.3174632710       -1.0813165667        2.4548228697
 H          3.5318173371       -3.9812524678       -2.4561376331
 H          2.3364343961       -2.9204895528       -1.7185868486
 H          4.5843338736       -1.9138625862       -2.5467439980
 H          5.2720606082       -2.5412974183       -1.0390625285
 O          3.0487504046       -0.2817402571       -1.7192843010
 C          2.3576637169        0.8524514431       -1.3273662335
 O          1.7260324170        1.4125911943       -2.2422902240
 O          3.2217996160        0.8095451307        2.1857224249
 C          1.6751248563        2.4716095091        0.4621435095
 C          0.1996410039        2.2454816188        0.2395229589
 C         -0.6227607240        3.1245780664       -0.4511229785
 C         -1.9605668285        2.8245558480       -0.6455685879
 C         -2.5071399121        1.6544153710       -0.1524220019
 C         -1.6950474220        0.7716508318        0.5482440902
 C         -0.3577152985        1.0755642123        0.7426356878
 H          0.2759090371        0.3834437602        1.2848407183
 N         -2.2434732430       -0.4184198401        1.0646922528
 S         -3.0279123595       -1.4347080717       -0.0217288528
 O         -2.9414565224       -2.7538785219        0.5672430730
 O         -2.5004858410       -1.2924503219       -1.3594587325
 C         -4.7196663398       -0.8835764686        0.0366759843
 C         -5.3587727688       -0.4966294627       -1.1247479427
 C         -6.6776698710       -0.0750030828       -1.0546289620
 C         -7.3297427785       -0.0486994483        0.1686530162
 C         -6.6739448026       -0.4429857438        1.3256225212
 C         -5.3562210213       -0.8668048912        1.2624525299
 H         -4.8111832869       -1.1846981805        2.1354808200
 H         -7.1844121743       -0.4211460415        2.2749149581
 H         -8.3552383499        0.2813071908        0.2204537335
 H         -7.1888395429        0.2314998544       -1.9530873067
 H         -4.8081395360       -0.5274134177       -2.0515813482
 H         -1.5874934044       -0.9501372486        1.6195978333
 H         -3.5462047024        1.4150728457       -0.3093122089
 H         -2.5863939747        3.5127078175       -1.1929482894
 H         -0.2143872801        4.0381874404       -0.8501809628
 H          1.8507559382        2.5431704548        1.5458042417
 C          2.2135049140        3.7196224626       -0.2029236197
 C          2.0662641553        5.0514730643        0.4683961196
 C          3.4114770742        4.3963445040        0.3905106008
 H          4.1519637128        4.8107449864       -0.2769465626
 H          3.8274229502        3.9685397345        1.2910882164
 H          1.8848994676        5.9207834073       -0.1452172877
 H          1.5693297360        5.0751790810        1.4262955353
 H          2.1475962984        3.6774947008       -1.2841654665
