  62
        -98.93918424
 C         -2.2237403193       -0.9013794800       -0.0286694809
 C         -3.2164783293       -0.6568168703        0.9506081792
 C         -4.0849526592        0.5189520698        0.7527169896
 C         -3.8684693791        1.3074814302       -0.3163689301
 C         -4.6327846291        2.5335679004       -0.7394648496
 C         -5.9868914391        2.1946738108       -1.3841904698
 C         -6.7884666891        1.1125064505       -0.6653833302
 H         -7.6641093892        0.8857451308       -1.2792911003
 H         -6.1891025292        0.2021433805       -0.6076738205
 C         -7.2812356592        1.4862892600        0.7304979399
 H         -7.9143059091        2.3736630101        0.6606129303
 H         -7.9038938692        0.6614077399        1.0860366796
 C         -6.1954903792        1.7464229395        1.7767033901
 H         -6.6841998992        1.7609800392        2.7553033601
 H         -5.7475687491        2.7272556296        1.6416554204
 C         -5.1098866592        0.6772053094        1.8500543197
 H         -5.5814036793       -0.3053236706        1.9653841393
 H         -4.5332495992        0.8290911591        2.7704996097
 H         -5.7971018291        1.8469019511       -2.4026088299
 H         -6.5780582190        3.1099170508       -1.4453109394
 H         -4.7618004390        3.2020890001        0.1065914806
 H         -4.0142185390        3.0486099107       -1.4779739194
 O         -2.8875229191        1.0440330605       -1.2259340201
 C         -2.0465558392       -0.0479966396       -1.1168250906
 O         -1.2137023992       -0.1392878793       -2.0407975906
 O         -3.3828229294       -1.3981832807        1.9561262989
 C         -1.3108170294       -2.1011927002        0.1679448687
 C          0.0587209106       -1.5873140304        0.5363650589
 C          0.3426769806       -1.2884371309        1.8660743990
 C          1.5618366407       -0.7428691711        2.2217610293
 C          2.5195237007       -0.4733107108        1.2591836094
 C          2.2390729207       -0.7525343103       -0.0710535307
 C          1.0237555107       -1.3241443201       -0.4233787010
 H          0.8138205107       -1.5211188897       -1.4627460711
 N          3.1984442108       -0.4659975700       -1.0592519006
 S          3.8912615309        1.0640656800       -1.0487103900
 O          3.0072736209        2.0534783198       -0.4761043896
 O          4.3231570609        1.2956909105       -2.4102491299
 C          5.3318218708        0.8632214795       -0.0189954800
 C          6.2015317408       -0.1703123205       -0.3079687904
 C          7.3337680207       -0.3305094309        0.4746007595
 C          7.5785621708        0.5425424087        1.5242321799
 C          6.6978475308        1.5772873987        1.7992663203
 C          5.5622950809        1.7420966190        1.0211293203
 H          4.8454459209        2.5274243290        1.2015870906
 H          6.8893871709        2.2555195083        2.6152640305
 H          8.4608112107        0.4158517084        2.1315967198
 H          8.0206429807       -1.1343566008        0.2641492792
 H          5.9757720607       -0.8246255301       -1.1332113907
 H          2.8855933608       -0.6990770396       -1.9913987807
 H          3.4671402107       -0.0349377410        1.5267191096
 H          1.7690460807       -0.5202999516        3.2574513093
 H         -0.4142337394       -1.4744487712        2.6151180589
 H         -1.7195132794       -2.6355176505        1.0358920185
 C         -1.3148695794       -3.0341387297       -1.0245369717
 C         -0.7478521095       -4.4132075298       -0.8737115922
 C         -2.2267668195       -4.2228545096       -1.0203187822
 H         -2.6962047095       -4.5138105992       -1.9481415423
 H         -2.8504248195       -4.3708646899       -0.1509698722
 H         -0.1995404995       -4.8388453995       -1.7000550224
 H         -0.3660867596       -4.6891369102        0.0974496577
 H         -1.1724790994       -2.5271173593       -1.9709111915
