  62
        -98.93911497
 C         -1.5122485376       -0.8642804153       -0.3786636187
 C         -2.7983414305       -1.4480599001       -0.3743891721
 C         -3.9358822592       -0.5244171606       -0.5314538233
 C         -3.6934726220        0.7906354844       -0.6719196503
 C         -4.7038580061        1.8983084058       -0.7896268821
 C         -5.0076416125        2.5054468020        0.5906217873
 C         -6.1176795811        1.8046542053        1.3729597275
 H         -7.0790621222        2.0165293303        0.9002148748
 H         -6.1402147040        2.2460959443        2.3720512608
 C         -5.9648212608        0.2874576736        1.5095970718
 H         -6.5675920291       -0.0344131010        2.3611443770
 H         -4.9262822024        0.0409978461        1.7380303610
 C         -6.4213022007       -0.4805697973        0.2602431407
 H         -6.9750215254        0.1957160348       -0.3908172850
 H         -7.1196842584       -1.2669192999        0.5544309994
 C         -5.2988518933       -1.1614442657       -0.5373150260
 H         -5.6230192986       -1.2825023493       -1.5764543639
 H         -5.1338472311       -2.1696726377       -0.1441191745
 H         -5.2964808781        3.5500789318        0.4584420598
 H         -4.0825427661        2.4930086492        1.1725806601
 H         -4.2491019288        2.6687203588       -1.4155788499
 H         -5.6101797706        1.5448173467       -1.2721522318
 O         -2.4354976343        1.3113240212       -0.6711468242
 C         -1.3156852230        0.5095347190       -0.5218748612
 O         -0.2342793298        1.1232251905       -0.5330922866
 H          2.4354446765       -1.3327338432       -0.1038297879
 C          1.9243458260       -1.1036145702        0.8150382457
 C          0.5553152697       -1.2844168185        0.9262850286
 C         -0.0531847719       -1.0217211313        2.1514730532
 C          0.6863968747       -0.5657994683        3.2246009043
 C          2.0479987633       -0.3505773570        3.0984656114
 C          2.6677722836       -0.6255304520        1.8862463691
 N          4.0465479446       -0.4365365608        1.7321852075
 S          4.7106578231       -0.0584715235        0.2495785771
 O          4.7808422710       -1.2384409348       -0.5763750530
 O          5.9840606272        0.5461049701        0.5810815464
 C          3.6458214689        1.1572060250       -0.5037365820
 C          3.3286795016        2.2948815443        0.2096865785
 C          2.5220007047        3.2520047794       -0.3817144246
 C          2.0509447584        3.0589386281       -1.6701306091
 C          2.3824312656        1.9140203371       -2.3750301442
 C          3.1863267115        0.9517038660       -1.7876493630
 H          3.4610380454        0.0421847233       -2.2990506172
 H          2.0083614386        1.7629136459       -3.3755230914
 H          1.4147034767        3.8012782547       -2.1253654318
 H          2.2552689898        4.1420497870        0.1653459842
 H          3.7116278188        2.4212667830        1.2096061621
 H          4.5083820606        0.0379570161        2.4931095004
 H          2.6253367430        0.0208909768        3.9310905357
 H          0.1986386822       -0.3644138021        4.1665817993
 H         -1.1196582326       -1.1741559891        2.2477112799
 C         -0.2920656653       -1.7533466322       -0.2296222354
 H         -0.6801023834       -2.7559094094        0.0043176864
 C          0.4655962106       -1.8151017718       -1.5395387232
 C          1.2857234787       -3.0209469644       -1.8845591743
 C          0.0027226179       -2.7536783697       -2.6114318497
 H          0.0486084951       -2.4264496052       -3.6392856097
 H         -0.8508307401       -3.3775912498       -2.3897477288
 H          1.3053168649       -3.8316263172       -1.1717423749
 H          2.2202639737       -2.8797208846       -2.4072497510
 H          0.8310844683       -0.8417388999       -1.8493855856
 O         -2.9913364588       -2.6870540573       -0.2346183831
