  62
        -98.94255782
 C         -2.4222379552       -0.1960578430       -0.2062973268
 C         -1.5288642329       -0.4979835970        0.8470874978
 C         -1.0129588688       -1.8778804059        0.8998713567
 C         -1.3486165086       -2.7393760907       -0.0742656345
 C         -0.8543498271       -4.1478376814       -0.2530085750
 C          0.3826677899       -4.1701339417       -1.1680527685
 C          1.7181570547       -4.0026015832       -0.4456099204
 H          1.9209335313       -4.8957047910        0.1500753622
 H          2.4929854789       -3.9326188762       -1.2127592819
 C          1.8143606200       -2.7689911509        0.4562220255
 H          1.3669088144       -1.9147672347       -0.0556953752
 H          2.8730299327       -2.5364303183        0.5945377207
 C          1.1682850981       -2.9740407130        1.8339707711
 H          1.8708561890       -2.6559951243        2.6067339161
 H          0.9988517965       -4.0403247225        1.9865181698
 C         -0.1397803050       -2.2061141927        2.0802923241
 H         -0.7419012929       -2.7576962024        2.8104245949
 H          0.0905092563       -1.2358454027        2.5291905372
 H          0.2717480291       -3.3716530575       -1.9073565821
 H          0.4042584071       -5.1187349272       -1.7090283414
 H         -1.6588985442       -4.7045316750       -0.7382109719
 H         -0.6386345947       -4.6053399828        0.7084131783
 O         -2.1755410105       -2.3981809072       -1.1006640451
 C         -2.7159294254       -1.1300479853       -1.2012916406
 O         -3.4344227431       -0.9556505334       -2.2074599848
 O         -1.1608747589        0.3418851168        1.7105752980
 C         -2.9650306425        1.2115059279       -0.4020630571
 C         -1.8197585207        2.1842853852       -0.2561401630
 C         -1.8010936133        3.2595671929        0.6213601772
 C         -0.6739367538        4.0581986127        0.7203829298
 C          0.4593226570        3.7864852383       -0.0242532487
 C          0.4471924362        2.7140010094       -0.9099260057
 C         -0.7006641106        1.9525106941       -1.0468548361
 H         -0.7046420290        1.1250652846       -1.7416351379
 N          1.5783092664        2.3833325870       -1.6820713575
 S          2.2269710931        0.8424174985       -1.5916527529
 O          3.3070240956        0.8403359246       -2.5552198080
 O          1.1958472178       -0.1438260091       -1.7895228064
 C          2.9197100191        0.7035018594        0.0479304461
 C          2.0793890706        0.7077743649        1.1432398841
 C          2.6366750177        0.6108552085        2.4091638217
 C          4.0107944247        0.5101264967        2.5596381459
 C          4.8404266568        0.5100257859        1.4485255737
 C          4.2918599671        0.6111879947        0.1804452497
 H          4.8950496453        0.6144431368       -0.7129942428
 H          5.9093454889        0.4311194086        1.5652974015
 H          4.4357111400        0.4306894592        3.5478807294
 H          1.9841800707        0.6144256885        3.2678647275
 H          1.0107813297        0.7769461081        1.0109726873
 H          2.3248052186        3.0625173557       -1.6292380915
 H          1.3478284152        4.3907909449        0.0804647477
 H         -0.6695812976        4.8899893167        1.4082959998
 H         -2.6556723271        3.4568098400        1.2475274559
 H         -3.2994241445        1.2409812245       -1.4529201144
 C         -4.1767735994        1.5541419668        0.4497670678
 C         -5.1138329953        0.4812288823        0.9167387774
 C         -4.2587860837        1.2120730713        1.9057180037
 H         -4.7373157533        1.9172760506        2.5694710892
 H         -3.4204076348        0.6959636077        2.3444865761
 H         -6.1743430949        0.6834155553        0.8993330716
 H         -4.8605421248       -0.5411511152        0.6747147713
 H         -4.6362315692        2.4880389886        0.1404742725
