  62
        -98.93937671
 C         -0.5371059296       -1.5339336293        0.5887979114
 C         -0.9244673203       -0.9947092602       -0.6595094688
 C         -2.0495184606       -0.0370299407       -0.6421540290
 C         -2.6633710703        0.2393041499        0.5238465510
 C         -3.8767654505        1.0855658296        0.8529774409
 C         -4.6234823512        1.8269660686       -0.2515992994
 C         -5.5019364812        0.9266304577       -1.1239551884
 H         -6.3830662209        0.6440491278       -0.5424669179
 H         -5.8444415517        1.5025062070       -1.9860087987
 C         -4.8496392409       -0.3642208223       -1.6142024078
 H         -4.5088769103       -0.9535444717       -0.7611157076
 H         -5.6147762308       -0.9520546730       -2.1284255472
 C         -3.6831712613       -0.1784639825       -2.5808434484
 H         -4.0115972518        0.3934514068       -3.4514885086
 H         -3.3737142510       -1.1678342027       -2.9290045378
 C         -2.4487104813        0.5112045583       -1.9830973293
 H         -1.6001030015        0.3256694782       -2.6498607194
 H         -2.5918160017        1.5881237383       -1.9350663699
 H         -5.2815308013        2.5497832887        0.2378135504
 H         -3.9267285316        2.3970523985       -0.8596705700
 H         -4.5769308701        0.4195959197        1.3687006816
 H         -3.5393003705        1.8049139403        1.6048703803
 O         -2.2224874497       -0.2782365392        1.7088854712
 C         -1.1643725294       -1.1633096187        1.7756890014
 O         -0.8850660488       -1.5476339579        2.9296217815
 H          1.4586026998       -0.0297223685        0.5747056097
 C          2.1892150099       -0.7277342285        0.1906745999
 C          1.8793369604       -2.0795158087        0.1339227709
 C          2.8366828906       -2.9584142886       -0.3625698089
 C          4.0656754202       -2.4922766985       -0.7921835896
 C          4.3639659897       -1.1428369483       -0.7444457106
 C          3.4150516996       -0.2556286284       -0.2529991809
 N          3.6868265391        1.1228417018       -0.1682070919
 S          2.5810492385        2.1859366209       -0.8429526122
 O          1.9665171182        1.6388869699       -2.0291672016
 O          3.3332037479        3.4103632911       -1.0346393732
 C          1.3589327488        2.4844251513        0.4133625381
 C          1.7402270892        2.5641413623        1.7380646179
 C          0.7836684095        2.8808315426        2.6891801180
 C         -0.5227638208        3.1349880418        2.2998975283
 C         -0.8852714912        3.0625422108        0.9644092885
 C          0.0615275786        2.7257801206        0.0108106584
 H         -0.1799690418        2.6351323998       -1.0363264115
 H         -1.8977015314        3.2700914803        0.6589764287
 H         -1.2619809106        3.3905707521        3.0428188484
 H          1.0595230698        2.9328583434        3.7301524579
 H          2.7658797994        2.3684997829        2.0039828477
 H          4.6250739689        1.3759786620       -0.4467048924
 H          5.3198740495       -0.7750297182       -1.0859880512
 H          4.7984448604       -3.1866447484       -1.1742876294
 H          2.6176474609       -4.0126729588       -0.4105644281
 C          0.5588261408       -2.5761478788        0.6717427917
 H          0.6956875512       -2.7816695481        1.7447941718
 C          0.0991100710       -3.8533312994       -0.0088133573
 C          0.4504198217       -5.1952238389        0.5582674434
 C         -0.9544621284       -4.6846522794        0.6578391236
 H         -1.7182219785       -5.1400283301        0.0454204342
 H         -1.3099960082       -4.3490029589        1.6215706235
 H          0.6507109318       -6.0072061493       -0.1247725461
 H          1.0400756721       -5.2199595881        1.4623552632
 H          0.0453351306       -3.7500001302       -1.0867408574
 O         -0.3720512506       -1.3082614808       -1.7460716888
