  62
        -98.93885054
 C          1.2315704043        0.9760339117        0.6102239959
 C          1.9229364376        0.7615184851       -0.6059525088
 C          2.7041845030       -0.4856821630       -0.6920979596
 C          2.6613797937       -1.3695278692        0.3182426426
 C          3.3646660363       -2.6997553584        0.4108501283
 C          4.8580858888       -2.7314922964        0.0425150338
 C          5.6218436576       -1.4159866624        0.2528503973
 H          5.0324364110       -0.7293834545        0.8627611982
 H          6.5423867653       -1.6276200350        0.8002842233
 C          6.0085497208       -0.7324874359       -1.0617457028
 H          6.8415245211       -0.0514369613       -0.8708683936
 H          6.3648468323       -1.4940974430       -1.7590060601
 C          4.9041514114        0.0827365648       -1.7342089608
 H          5.2680478101        0.3964602566       -2.7156323667
 H          4.7125884605        0.9922376621       -1.1584434783
 C          3.5616573969       -0.6441111164       -1.9140762776
 H          3.0231260273       -0.1576353360       -2.7319658770
 H          3.7128780879       -1.6906230473       -2.1684079636
 H          4.9673360801       -3.0354247276       -0.9980203321
 H          5.3169263816       -3.5152933008        0.6472209177
 H          2.8340033404       -3.4163809361       -0.2222164160
 H          3.2358819023       -3.0188190963        1.4474216167
 O          1.8998343486       -1.1667825794        1.4296313182
 C          1.1794102070       -0.0015854429        1.6057089346
 O          0.5375226212        0.0492450735        2.6749344728
 O          1.9056530985        1.5589482731       -1.5779420449
 C          0.4519044208        2.2561342445        0.8733143105
 C         -0.8371452525        2.1929155841        0.0923314546
 C         -1.0027246270        2.7777610505       -1.1564563726
 C         -2.1918455361        2.6240246581       -1.8494069102
 C         -3.2377372013        1.8947662343       -1.3124224424
 C         -3.0791057368        1.3057022324       -0.0648292689
 C         -1.8871355442        1.4550624128        0.6267976162
 H         -1.7558216063        0.9791305165        1.5905206806
 N         -4.1406301051        0.5424234295        0.4779218446
 S         -4.4011794598       -0.9360841637       -0.2633084963
 O         -4.6829477613       -0.7097194476       -1.6569059275
 O         -5.4354529142       -1.5887629182        0.5053178384
 C         -2.8611725596       -1.8166666930       -0.0783911802
 C         -1.8084686823       -1.5115288772       -0.9181226035
 C         -0.5947016866       -2.1519581082       -0.7272745712
 C         -0.4559347085       -3.0788374788        0.2940368490
 C         -1.5208165510       -3.3699074889        1.1319689451
 C         -2.7347258930       -2.7287630284        0.9500406778
 H         -3.5892547496       -2.9248103101        1.5778400874
 H         -1.4039835540       -4.0874600422        1.9280973489
 H          0.4905356904       -3.5731075831        0.4436173432
 H          0.2406868576       -1.9135973365       -1.3678315476
 H         -1.9489719273       -0.7886157687       -1.7058113206
 H         -4.0431717245        0.3893177815        1.4727411144
 H         -4.1630791161        1.7531564185       -1.8463251733
 H         -2.3056985281        3.0794393320       -2.8214715889
 H         -0.1906728794        3.3329212003       -1.5957687461
 H          0.1943953146        2.2324835371        1.9409713078
 C          1.2720106736        3.4992861888        0.6024740828
 C          0.7996851281        4.8141098741        1.1433919121
 C          2.0066326428        4.1505959512        1.7338221183
 H          2.9786211771        4.5783215009        1.5384539656
 H          1.9164790250        3.7047938543        2.7139912347
 H          0.9412815381        5.7001010849        0.5438199976
 H         -0.1116024296        4.8164910339        1.7224071408
 H          1.7596700961        3.4948534839       -0.3634325002
