  62
        -98.94047475
 C          1.8094301495        0.8625845495       -0.3308909598
 C          3.1398968595        1.3484639993       -0.4020113798
 C          4.1303799595        0.6557314192        0.4324451502
 C          3.7254822993       -0.3410734408        1.2400372802
 C          4.6338283492       -1.1749680009        2.0951038002
 C          5.1152845491       -2.4218768610        1.3396338202
 C          5.6625042091       -2.1264630410       -0.0569548198
 H          5.9992327990       -3.0746212611       -0.4816364198
 H          4.8496130891       -1.7626506609       -0.6896591198
 C          6.8168148092       -1.1149070112       -0.0858729499
 H          7.5985545792       -1.4938464413       -0.7475900999
 H          7.2528671992       -1.0217586112        0.9094477601
 C          6.4313714094        0.2730377389       -0.6012552399
 H          7.3507966295        0.8359639087       -0.7829049899
 H          5.9129631894        0.1776878289       -1.5588943599
 C          5.5582249895        1.1141920090        0.3384052801
 H          6.0164523095        1.1543600189        1.3288320301
 H          5.5205766096        2.1308787790       -0.0640923199
 H          5.8860804390       -2.9112203911        1.9377724802
 H          4.2744928290       -3.1120531409        1.2389219502
 H          4.0803737892       -1.4888255608        2.9818017302
 H          5.4861517793       -0.5735841610        2.4055722002
 O          2.4312596993       -0.7342850706        1.3335916202
 C          1.4388777794       -0.1522412705        0.5526161802
 O          0.3050123693       -0.6222836503        0.7507265202
 O          3.4807681197        2.3196170092       -1.1291209398
 C          0.7711200496        1.5334931996       -1.2116094098
 C         -0.4719169404        1.8538099698       -0.4194664798
 C         -0.3411128303        2.5766086097        0.7642009002
 C         -1.4434418302        2.8755584599        1.5402844802
 C         -2.7095901103        2.4784855701        1.1450956102
 C         -2.8539653904        1.7703719701       -0.0386471098
 C         -1.7417293605        1.4635168099       -0.8146554298
 H         -1.8764924505        0.8943331799       -1.7211598098
 N         -4.1462976405        1.3831747902       -0.4535839297
 S         -4.9764283306        0.2464928504        0.4531749603
 O         -6.3104704506        0.2028154005       -0.1024003597
 O         -4.8749113105        0.5942059303        1.8468648503
 C         -4.1568913408       -1.3060545798        0.1304369403
 C         -4.8107050009       -2.2697069497       -0.6133336897
 C         -4.1561324911       -3.4571230498       -0.8970322597
 C         -2.8594325811       -3.6553272299       -0.4458727797
 C         -2.2161213410       -2.6757828700        0.2941572502
 C         -2.8683948008       -1.4893881699        0.5899992203
 H         -2.3712352207       -0.7183110000        1.1559257902
 H         -1.2016326110       -2.8031231801        0.6366586202
 H         -2.3459647812       -4.5766080500       -0.6728588597
 H         -4.6546243612       -4.2212128097       -1.4717769697
 H         -5.8156739109       -2.0693197095       -0.9482879397
 H         -4.1906343105        1.1185672002       -1.4282290297
 H         -3.5789808203        2.6895257702        1.7456017302
 H         -1.3196944202        3.4271239999        2.4603565302
 H          0.6462133398        2.8895601196        1.0771020402
 H          1.2395543097        2.4898063995       -1.5000515998
 C          0.4858438394        0.7834547196       -2.5057099398
 C          1.4584364193       -0.2131277805       -3.0598639298
 C          0.1418319993       -0.6757749903       -2.5160341498
 H         -0.6055574208       -1.0245680902       -3.2140637598
 H          0.1262015292       -1.1877260803       -1.5669062298
 H          1.6144053393       -0.2360324105       -4.1280656498
 H          2.3499607493       -0.4183803306       -2.4851881098
 H         -0.0205544805        1.4085778297       -3.2350642898
