  62
        -98.93803911
 C          2.2466569947        1.0137278654        0.3319757347
 C          2.4999281496        0.1063336049       -0.7215599910
 C          3.3873397139       -1.0350165728       -0.4161565077
 C          3.8672745807       -1.1674627188        0.8344623444
 C          4.8106567492       -2.2142760485        1.3646175682
 C          6.2658118926       -1.9720370674        0.9314201066
 C          6.4443769035       -1.5839040913       -0.5340707466
 H          5.8647635151       -0.6819438446       -0.7388264679
 H          7.4977436708       -1.3331508191       -0.6843946704
 C          6.0735197106       -2.6668241405       -1.5444999329
 H          6.6855648861       -3.5526838152       -1.3606621528
 H          6.3302673174       -2.2860042570       -2.5362585969
 C          4.6027569233       -3.0884332694       -1.5645414225
 H          4.3730201977       -3.7496084026       -0.7332682467
 H          4.4440931023       -3.6710709841       -2.4766826515
 C          3.6083438632       -1.9323751395       -1.6100130034
 H          3.8693806806       -1.2675085330       -2.4410966736
 H          2.6188493290       -2.3321786886       -1.8630821169
 H          6.8436055570       -2.8726288772        1.1457847162
 H          6.6681249110       -1.1597430208        1.5417549844
 H          4.4765612896       -3.2037543203        1.0668146438
 H          4.7589806317       -2.1600267613        2.4544144688
 O          3.5634952446       -0.2838564323        1.8299512402
 C          2.7580794396        0.8164445005        1.6126158639
 O          2.5644273128        1.5260672531        2.6224189727
 O          2.0150905496        0.2375088645       -1.8754434788
 C          1.3632405474        2.2240475823        0.0951833914
 C         -0.0175482553        1.7941823195       -0.3400855153
 C         -0.7230205689        2.4176205543       -1.3607706968
 C         -1.9975831469        1.9919916455       -1.6938757141
 C         -2.5961041452        0.9435469766       -1.0203694527
 C         -1.9045453615        0.3200924864        0.0101658936
 C         -0.6309098521        0.7520897695        0.3446736516
 H         -0.0960256155        0.2676633273        1.1537976305
 N         -2.5047183385       -0.7516662124        0.6992214452
 S         -3.9976847855       -0.4617344159        1.4173666893
 O         -4.1430749464        0.9273889606        1.7876677758
 O         -4.0958853500       -1.4271570663        2.4905470285
 C         -5.1739158697       -0.8811803345        0.1486722825
 C         -5.1383159835       -2.1583321856       -0.3760461211
 C         -6.0529472378       -2.5033089354       -1.3581704680
 C         -6.9838173658       -1.5718893021       -1.7941188165
 C         -7.0081428185       -0.2947182023       -1.2550453113
 C         -6.0952598249        0.0573778980       -0.2729293291
 H         -6.0722692826        1.0394073793        0.1718059605
 H         -7.7325631941        0.4276905348       -1.5952364106
 H         -7.6944714031       -1.8434754114       -2.5586641802
 H         -6.0368513412       -3.4954240528       -1.7798449289
 H         -4.4017692891       -2.8522536732       -0.0066000328
 H         -1.8859287908       -1.1955292344        1.3628337516
 H         -3.5851077167        0.6046886262       -1.2822069267
 H         -2.5311137606        2.4825505119       -2.4935078317
 H         -0.2737580753        3.2363386149       -1.8982458588
 H          1.2653757731        2.7225330613        1.0717152784
 C          2.0332548397        3.1773157978       -0.8729153377
 C          1.7947312525        4.6528889599       -0.7698324314
 C          3.1169176397        4.0772429292       -0.3627462467
 H          3.9762998894        4.2586103600       -0.9905894028
 H          3.3506644735        4.0220692079        0.6909764351
 H          1.7497369491        5.2332958247       -1.6789750304
 H          1.1328211662        4.9997362592        0.0094469370
 H          2.1640073394        2.7439527631       -1.8576383303
