  62
        -98.93312756
 C         -2.4092313950       -1.0431979254        0.3537023804
 C         -2.6656847140        0.1884345027        1.0068599268
 C         -3.9642271854        0.8399681440        0.7512193749
 C         -4.8402924319        0.2283268587       -0.0670225327
 C         -6.1987238578        0.7051301161       -0.5074177756
 C         -6.1214238982        1.8111906101       -1.5721356781
 C         -5.0838779045        2.8965258535       -1.2972818223
 H         -4.0985179570        2.4359333299       -1.2034113215
 H         -5.0517965732        3.5537490859       -2.1702823538
 C         -5.3580100699        3.7635031286       -0.0707206222
 H         -4.5941180565        4.5450217549       -0.0491287967
 H         -6.3286385950        4.2510071724       -0.1861200261
 C         -5.3347467318        3.0416975486        1.2783244005
 H         -6.2516152067        2.4814364705        1.4402192305
 H         -5.2983584817        3.8090727214        2.0571654934
 C         -4.1228866002        2.1416375254        1.4994517702
 H         -4.0737020260        1.8769902793        2.5628482380
 H         -3.2085353201        2.7143897041        1.3055962858
 H         -7.1090478113        2.2647950656       -1.6703721342
 H         -5.8674097158        1.3434735285       -2.5263732465
 H         -6.7082324174       -0.1587346513       -0.9397877620
 H         -6.7751110982        1.0337341765        0.3522098420
 O         -4.5586958696       -0.9628182771       -0.6635969740
 C         -3.3578827987       -1.6254815842       -0.4865387765
 O         -3.2854781102       -2.6968904296       -1.1199065645
 O         -1.8370211259        0.7348097769        1.7862839207
 C         -1.0615428369       -1.6907211995        0.6189844255
 C         -0.0869558802       -1.4312816059       -0.5055820328
 C         -0.2718756970       -1.9767494628       -1.7722076564
 C          0.6537497786       -1.7462045739       -2.7730867428
 C          1.7849075846       -0.9872724546       -2.5292545507
 C          1.9725438999       -0.4280201973       -1.2707744665
 C          1.0338585014       -0.6477292530       -0.2720609925
 H          1.1880516591       -0.1998716325        0.6991587261
 N          3.0965896478        0.3686090377       -0.9999352200
 S          3.7799757862        0.2889904295        0.5424895455
 O          3.8313399714       -1.0848054995        0.9894618364
 O          3.0939411121        1.2168133561        1.4060383737
 C          5.4237660063        0.8897544033        0.2001904848
 C          6.4430506384       -0.0163902845       -0.0241318676
 C          7.7111200634        0.4603757901       -0.3173011592
 C          7.9364909264        1.8271615932       -0.3831667666
 C          6.9035371904        2.7243713085       -0.1549190547
 C          5.6335150268        2.2545861931        0.1397166287
 H          4.8023533320        2.9123334701        0.3344562863
 H          7.0832048366        3.7862161292       -0.2040169414
 H          8.9241378619        2.1958796121       -0.6108163362
 H          8.5168411909       -0.2343313479       -0.4917694346
 H          6.2229332294       -1.0694562371        0.0470760744
 H          3.7981927915        0.3190872987       -1.7261180383
 H          2.5129578788       -0.8216916620       -3.3088969535
 H          0.4990570631       -2.1741541420       -3.7521513236
 H         -1.1515266851       -2.5713120118       -1.9641208607
 H         -0.6706113493       -1.1827466553        1.5118847161
 C         -1.1460840316       -3.1761281588        0.9142199494
 C          0.0271113235       -3.8454086425        1.5630749916
 C         -1.2407852814       -3.6390357732        2.3352465314
 H         -1.8558662091       -4.4982623374        2.5568021516
 H         -1.2495965303       -2.8839240748        3.1081143484
 H          0.2833820585       -4.8473282678        1.2545796741
 H          0.8812739987       -3.2298016973        1.8068589672
 H         -1.6981463914       -3.7343177938        0.1696454532
