  62
        -98.94421641
 C          1.8701798409        1.1238394596       -0.1494331395
 C          2.3305204709       -0.0275928802       -0.8322452598
 C          3.7885996009       -0.2180638804       -0.8513272295
 C          4.5816381309        0.6891031993       -0.2526205189
 C          6.0752333408        0.5862294390       -0.1481033286
 C          6.4927388404       -0.1386787215        1.1392174713
 C          5.7526842201       -1.4553652415        1.3753935306
 H          4.6949896301       -1.2448708814        1.5497509704
 H          6.1496128298       -1.8910291919        2.2948617305
 C          5.8826899703       -2.4707725211        0.2315606303
 H          6.0911599100       -3.4542932913        0.6578986000
 H          6.7291039705       -2.2073450610       -0.4037686694
 C          4.6283271105       -2.6168512006       -0.6320121901
 H          3.7588171503       -2.7893142607        0.0076824596
 H          4.7502921405       -3.5016705304       -1.2626744804
 C          4.3156571809       -1.4348799602       -1.5582175698
 H          3.5215729310       -1.7504456199       -2.2415867701
 H          5.1992522011       -1.1863110801       -2.1497635294
 H          6.2958753103        0.5212821482        1.9871794415
 H          7.5672072904       -0.3258920517        1.0967592115
 H          6.4591935510        0.0559555293       -1.0173788187
 H          6.4898432110        1.5955904289       -0.1369665281
 O          4.1020301609        1.7915780691        0.3778198814
 C          2.7398672409        2.0314231193        0.4550456611
 O          2.4333300209        3.0666478591        1.0801780714
 H         -1.7212912691       -0.1809011295       -0.9633792009
 C         -1.3556893594       -0.4535407700        0.0119238491
 C         -0.3123021594        0.2434991997        0.5988886496
 C          0.1368115402       -0.1575322009        1.8559143896
 C         -0.4264160501       -1.2430549610        2.4957960391
 C         -1.4562132501       -1.9493023306        1.8984904285
 C         -1.9168545297       -1.5542741501        0.6489116086
 N         -2.9437043496       -2.2698424697        0.0189316780
 S         -4.1014821293       -1.5002220692       -0.8995688420
 O         -5.1990818194       -2.4423038190       -0.9495657126
 O         -3.5617022589       -1.0941107088       -2.1720346517
 C         -4.5765778293       -0.0686424795        0.0529909384
 C         -4.4242686390        1.1924036607       -0.4833996311
 C         -4.7885463090        2.2938501005        0.2747816392
 C         -5.2952028994        2.1145748101        1.5521925590
 C         -5.4469719697        0.8396362099        2.0765077185
 C         -5.0855281397       -0.2642867099        1.3221482282
 H         -5.2026881899       -1.2684198300        1.6956726278
 H         -5.8449218100        0.7040849596        3.0692302184
 H         -5.5757839894        2.9733291699        2.1414233393
 H         -4.6742443488        3.2850394306       -0.1343753704
 H         -4.0248763287        1.2864829410       -1.4797106209
 H         -3.3310293099       -3.0287313599        0.5589655377
 H         -1.8890645803       -2.8080659508        2.3885132981
 H         -0.0620464704       -1.5449904214        3.4661874291
 H          0.9474652402        0.3913080189        2.3165278800
 C          0.3798323309        1.4091366798       -0.0630572297
 H          0.2767521209        2.2867996996        0.5912854705
 C         -0.1575305786        1.7600593204       -1.4338217798
 C         -1.3322657385        2.6785814806       -1.5724168897
 C          0.0393071717        3.1563229606       -1.9411605292
 H          0.2753927320        3.2980290709       -2.9852190591
 H          0.5347688616        3.8554789902       -1.2830293388
 H         -1.7767261787        3.0610067804       -0.6662618097
 H         -2.0353903983        2.4922373710       -2.3702915000
 H         -0.0524267586        0.9510990906       -2.1479671700
 O          1.5688848110       -0.8554533199       -1.3971939403
