  62
        -98.94892364
 C         -2.2328940471       -0.8580036410        0.0797959489
 C         -1.5894361589       -0.1203960064       -0.9427485159
 C         -1.9950447448        1.2849708064       -1.0747377277
 C         -2.8965622621        1.7929721786       -0.2154545856
 C         -3.4042275740        3.2055666540       -0.2361476928
 C         -2.5749714656        4.1282660829        0.6660514900
 C         -1.0661268602        4.0275906141        0.4414551179
 H         -0.5909273990        4.7655630492        1.0926333225
 H         -0.7111045745        3.0469917520        0.7674211244
 C         -0.6185643216        4.2627033723       -1.0078592254
 H          0.2591985678        4.9124394566       -0.9975996493
 H         -1.4022367358        4.7814835332       -1.5623854677
 C         -0.2188341114        2.9862877920       -1.7506568875
 H          0.3345545916        3.2709239709       -2.6498443343
 H          0.4537996812        2.4038798362       -1.1158202296
 C         -1.3776139565        2.0813336908       -2.1894663629
 H         -2.1357500412        2.6765971766       -2.7038614043
 H         -0.9785347306        1.3472488089       -2.8956255823
 H         -2.7822275762        3.8742266272        1.7083967440
 H         -2.9010635620        5.1566520290        0.4961940032
 H         -3.3853244424        3.5728952631       -1.2606432803
 H         -4.4366397079        3.2006470773        0.1191041367
 O         -3.4462432821        1.0699895046        0.7953578822
 C         -3.1192465184       -0.2638266630        0.9751815777
 O         -3.6775414135       -0.8052899499        1.9536266360
 H         -0.3639308596       -0.9468222023        1.9052115567
 C          0.2229073701       -1.6491826602        1.3247847584
 C         -0.4193473760       -2.4913187877        0.4250063355
 C          0.3505995404       -3.3892012053       -0.3027621491
 C          1.7285496592       -3.4071374492       -0.1670534048
 C          2.3671934845       -2.5190499203        0.6795741073
 C          1.6016396822       -1.6398820383        1.4326201889
 N          2.2676543622       -0.6608448531        2.2311313044
 S          2.2744039696        0.8197941416        1.4104475252
 O          3.0130489414        1.7347156887        2.2559078051
 O          0.9309052270        1.2418086783        1.0775713619
 C          3.2098158808        0.4330380322       -0.0485728253
 C          4.5870996652        0.5160277964        0.0240100284
 C          5.3387135320        0.1686391542       -1.0862903561
 C          4.7019102303       -0.2588406603       -2.2421420953
 C          3.3190909237       -0.3381773304       -2.2962186403
 C          2.5585277659        0.0081850118       -1.1896116885
 H          1.4806135073       -0.0555925087       -1.2065601175
 H          2.8187208943       -0.6738424773       -3.1902425601
 H          5.2861505238       -0.5329327081       -3.1064958168
 H          6.4144118935        0.2289149062       -1.0466729126
 H          5.0328108303        0.8564391893        0.9442231647
 H          1.8111451357       -0.5123635076        3.1222922524
 H          3.4413565960       -2.4912744686        0.7632375500
 H          2.3130411864       -4.1034246995       -0.7480508934
 H         -0.1286260113       -4.0626642345       -0.9943132126
 C         -1.9103870915       -2.3322419030        0.2651621724
 H         -2.4001369165       -2.6382036673        1.2012060037
 C         -2.4875548342       -3.1387869205       -0.8794268636
 C         -2.8768720726       -4.5711330026       -0.6734204848
 C         -3.9349343400       -3.5225856536       -0.8361821488
 H         -4.5026015064       -3.4971717712       -1.7541341262
 H         -4.5006700934       -3.2216016767        0.0338582059
 H         -2.7303626205       -4.9927033698        0.3094677961
 H         -2.7228008846       -5.2695907279       -1.4818356744
 H         -2.0761786237       -2.8499515729       -1.8397424189
 O         -0.7350396739       -0.6177767430       -1.7217777673
