  62
        -98.94058823
 C         -1.6137508787       -1.0576154016        0.8684829527
 C         -2.8449051193       -1.2503656754        0.1937390568
 C         -3.8440374339       -0.1823707737        0.3724985860
 C         -3.5431736867        0.8964354013        1.1162638596
 C         -4.4436253044        2.0797780797        1.3195849425
 C         -4.1991091046        3.1575699727        0.2538560793
 C         -4.1780924740        2.6192074354       -1.1766987525
 H         -4.0256492990        3.4712800678       -1.8425563757
 H         -3.3163598795        1.9586682484       -1.2971401636
 C         -5.4521249091        1.8695155492       -1.5903854784
 H         -6.2675851621        2.1213563126       -0.9112982521
 H         -5.7469383530        2.2027522830       -2.5877100653
 C         -5.3000090758        0.3488301846       -1.6561366321
 H         -4.4282629555        0.0934010993       -2.2635782840
 H         -6.1803103033       -0.0596521111       -2.1596806431
 C         -5.1725536652       -0.3676145110       -0.3058590451
 H         -5.9871053199       -0.0595889535        0.3528768746
 H         -5.2673615848       -1.4416468280       -0.4910715373
 H         -4.9776044643        3.9169771915        0.3473517650
 H         -3.2362571766        3.6321466418        0.4555328369
 H         -5.4802119979        1.7498866342        1.2859704064
 H         -4.2390460627        2.5019240435        2.3050058190
 O         -2.3453038323        1.0536187933        1.7366021735
 C         -1.3606325612        0.0872564974        1.6284215384
 O         -0.3128523527        0.3544175438        2.2510393185
 O         -3.1167475372       -2.2471676655       -0.5218544734
 C         -0.4627728957       -2.0490191307        0.8044052124
 C          0.4483307168       -1.6958016565       -0.3429561573
 C         -0.0469947846       -1.5456611127       -1.6354261425
 C          0.7994374369       -1.2006834631       -2.6723371159
 C          2.1465158142       -0.9806495063       -2.4394865833
 C          2.6497144199       -1.1225207302       -1.1521880381
 C          1.8002988865       -1.4892651595       -0.1161320526
 H          2.2051682816       -1.5933755662        0.8790685843
 N          4.0140577297       -0.9144411877       -0.8867681631
 S          4.4729529766        0.0619436944        0.3952191263
 O          5.8823299180        0.3011222454        0.1745130293
 O          4.1232178987       -0.5671752596        1.6417236974
 C          3.5632915915        1.5761557332        0.1516954833
 C          2.2988709642        1.7234510207        0.6844073489
 C          1.5938073793        2.8860910998        0.4119802224
 C          2.1569325361        3.8743958117       -0.3792544421
 C          3.4312116920        3.7119978043       -0.9030045010
 C          4.1393136251        2.5513315765       -0.6410887469
 H          5.1349981664        2.3870670764       -1.0205163756
 H          3.8706641772        4.4839511087       -1.5139752766
 H          1.6008953934        4.7755605016       -0.5849995428
 H          0.6046141044        2.9984981230        0.8280556665
 H          1.8669083764        0.9536370854        1.3044571190
 H          4.5616647287       -0.6897083796       -1.7055349074
 H          2.8048513755       -0.7032888811       -3.2486623952
 H          0.4059392275       -1.0928717426       -3.6717814519
 H         -1.0992547798       -1.7087998079       -1.8141117269
 H          0.1080664932       -1.8918973428        1.7342701855
 C         -0.9111731292       -3.5036775054        0.7955696745
 C         -0.7121437857       -4.4275885194       -0.3644945562
 C          0.1192723192       -4.5917669883        0.8697884795
 H         -0.0644989853       -5.4376636783        1.5148619238
 H          1.1564896830       -4.2936781846        0.8183513894
 H         -1.4910532276       -5.1466964905       -0.5669359311
 H         -0.2341117475       -4.0433247484       -1.2514890439
 H         -1.8151163373       -3.6532330353        1.3764664363
