  62
        -98.93457387
 C         -2.6681884254       -0.4820208146       -0.2691993666
 C         -2.0910266163       -1.2015002120        0.8041254802
 C         -1.2997285922       -2.4030658178        0.4533124050
 C         -1.2240317510       -2.7871813362       -0.8327225699
 C         -0.4840699279       -3.9549693658       -1.4335968411
 C          1.0272901203       -3.7165689652       -1.5365192809
 C          1.6802519033       -3.2119814860       -0.2532449046
 H          2.7443440711       -3.0651934331       -0.4608579573
 H          1.2706669796       -2.2309242461       -0.0046321366
 C          1.5625065074       -4.1439461758        0.9512455141
 H          1.9542227769       -5.1278798869        0.6834718856
 H          2.2027049852       -3.7298968022        1.7341785436
 C          0.1581967070       -4.3140530026        1.5405439514
 H          0.2774697282       -4.7074733467        2.5540881284
 H         -0.4225448197       -5.0504301768        0.9902166062
 C         -0.6346800450       -3.0170156905        1.6609945227
 H         -1.4369260045       -3.1568838671        2.3952220824
 H          0.0088520427       -2.2336997744        2.0813668904
 H          1.5006421096       -4.6501283836       -1.8483346608
 H          1.2018000552       -2.9666762406       -2.3122663449
 H         -0.6896983049       -4.8623494092       -0.8732620086
 H         -0.8843644491       -4.0859942148       -2.4418709991
 O         -1.8603076679       -2.1012672878       -1.8281038757
 C         -2.5286692950       -0.9206960500       -1.5866508762
 O         -2.9842899677       -0.3680535514       -2.6109716745
 H         -0.7876236883        0.9318055797        0.7674506341
 C         -1.0229148709        1.7879093988        0.1543989646
 C         -2.3010598191        1.9447617183       -0.3597332716
 C         -2.5718193575        3.0679824379       -1.1322815088
 C         -1.5797342868        3.9983914272       -1.3902862769
 C         -0.2927715067        3.8086471113       -0.9188790103
 C         -0.0132060389        2.6874914677       -0.1464942951
 N          1.2806511690        2.4140802044        0.3318421028
 S          1.7505034588        0.7846941545        0.2233167284
 O          1.2370746765        0.2129765957       -1.0000998986
 O          1.4050786943        0.1186803810        1.4527689002
 C          3.5231085805        0.9621671560        0.1310971706
 C          4.1476111668        0.9147525992       -1.1005809407
 C          5.5211069152        1.0920191480       -1.1628882183
 C          6.2415748589        1.3169486093        0.0005142843
 C          5.6007980040        1.3601993537        1.2300381713
 C          4.2283284691        1.1816103879        1.2995528764
 H          3.6871775621        1.1966754621        2.2312243185
 H          6.1643340805        1.5314978910        2.1329202623
 H          7.3097475442        1.4562198395       -0.0512813782
 H          6.0220915959        1.0542485555       -2.1167145406
 H          3.5458670825        0.7301001102       -1.9762086153
 H          1.9815286380        3.0262406799       -0.0647258092
 H          0.4894182571        4.5146501741       -1.1533731505
 H         -1.8036237682        4.8667326812       -1.9912022192
 H         -3.5582101909        3.1952842052       -1.5537632042
 C         -3.3383677147        0.8750111206       -0.1162690578
 H         -4.0746164306        0.9394276040       -0.9344880241
 C         -4.0902412355        1.0617437613        1.1918982240
 C         -3.5659483442        1.8938210922        2.3193148104
 C         -4.7275877666        2.3822933087        1.5104859887
 H         -5.7078961768        2.3840347523        1.9621249026
 H         -4.5510428795        3.2000186595        0.8286034408
 H         -3.7361989565        1.5381041629        3.3236895991
 H         -2.6090799347        2.3757719479        2.1888697416
 H         -4.6453431450        0.1720749287        1.4689280785
 O         -2.2119822930       -0.8818376195        2.0153425405
