  62
        -98.94340564
 C          2.2868296116        0.5475951965        0.0102659150
 C          3.2103763738        0.3139654296        1.0653103096
 C          4.1790514710       -0.7664958928        0.8595537997
 C          4.1375347513       -1.4884440469       -0.2744407841
 C          5.0432908983       -2.6357593849       -0.6303027327
 C          6.3839663164       -2.2048313165       -1.2411630070
 C          7.3754639349       -1.5789597222       -0.2594157063
 H          7.4952910596       -2.2358977274        0.6025944794
 H          8.3404864863       -1.5291485989       -0.7676614423
 C          6.9942377814       -0.1692351594        0.2138061685
 H          6.2449061033        0.2513981400       -0.4608722277
 H          7.8704144524        0.4811453554        0.1630334999
 C          6.4633314041       -0.1026425090        1.6458728720
 H          7.2516145866       -0.3953405767        2.3428951720
 H          6.1902794007        0.9333310346        1.8619496372
 C          5.2319726149       -0.9806758550        1.9046432810
 H          5.5203145015       -2.0308446738        1.9435648544
 H          4.8050238117       -0.6975197683        2.8696885847
 H          6.8461777111       -3.0956593225       -1.6727125744
 H          6.1873935707       -1.5047497238       -2.0565591574
 H          4.5073643148       -3.2384524536       -1.3667271488
 H          5.2247764546       -3.2472827378        0.2539866369
 O          3.2217372584       -1.2555813981       -1.2494970884
 C          2.2931595931       -0.2288883211       -1.1482216341
 O          1.5529625288       -0.1397318373       -2.1502186465
 O          3.2256413040        0.9868020571        2.1296238221
 C          1.3192598149        1.7028685859        0.2044996344
 C         -0.0634713236        1.2422344622        0.6011965875
 C         -0.6133120560        1.6184496313        1.8211721423
 C         -1.8958329603        1.2299655926        2.1668112778
 C         -2.6542373378        0.4572585891        1.3059535951
 C         -2.1122698435        0.0712432049        0.0870285833
 C         -0.8284493551        0.4669870695       -0.2589235047
 H         -0.4117689486        0.1612950930       -1.2074490552
 N         -2.8717771702       -0.7301963456       -0.7881912677
 S         -4.3552115807       -0.1146447616       -1.2867100516
 O         -4.6404256980       -0.7695265272       -2.5446955117
 O         -4.3488598504        1.3304048458       -1.3013492145
 C         -5.5002134782       -0.7029065639       -0.0560812203
 C         -5.6103065190       -2.0666154163        0.1335955547
 C         -6.5044399241       -2.5400436204        1.0805177022
 C         -7.2708071859       -1.6473840977        1.8153494325
 C         -7.1509004608       -0.2813566655        1.6106363152
 C         -6.2576779269        0.1989414045        0.6654794098
 H         -6.1261920461        1.2520183547        0.4747152647
 H         -7.7478580470        0.4108688967        2.1823751543
 H         -7.9660287450       -2.0190079725        2.5514934537
 H         -6.6009977214       -3.6015925979        1.2422008324
 H         -4.9997931629       -2.7253322615       -0.4613890231
 H         -2.3424818671       -1.0416126127       -1.5909480995
 H         -3.6531056310        0.1497577727        1.5693924332
 H         -2.3093642618        1.5309921901        3.1171259774
 H         -0.0237259335        2.2137498521        2.5031184486
 H          1.7308936693        2.2754508856        1.0467204895
 C          1.2404247074        2.6199298943       -1.0018506630
 C          0.7657023238        4.0284097936       -0.8151732403
 C          2.2067857236        3.7576267376       -1.1255626737
 H          2.5825394696        4.0096868437       -2.1058979601
 H          2.9310711241        3.8857034958       -0.3342888206
 H          0.1455706545        4.4673953422       -1.5817192780
 H          0.5131891505        4.3420068469        0.1863317517
 H          0.9547707939        2.1099055697       -1.9130337924
