  62
        -98.93507331
 C          2.0178969004        0.9854013248        0.2330258135
 C          2.6103005867        0.0381393127        1.1037646219
 C          3.2433536320       -1.1239444596        0.4695427880
 C          3.1641432267       -1.2639358597       -0.8662674115
 C          3.7943113346       -2.3772213299       -1.6508596624
 C          5.2112761532       -2.0033761569       -2.1083681465
 C          6.0933663033       -1.4450435538       -0.9917245161
 H          5.6856008204       -0.4869565021       -0.6616765182
 H          7.0764701914       -1.2453779536       -1.4231405923
 C          6.2462332088       -2.3741506580        0.2206021156
 H          7.2980011957       -2.3986660095        0.5131275748
 H          5.9621400579       -3.3908001028       -0.0533149342
 C          5.4516539343       -1.9424366892        1.4545275637
 H          5.6632749947       -0.8938054563        1.6782596395
 H          5.7965800496       -2.5350181457        2.3060289878
 C          3.9302557959       -2.1175283636        1.3639477109
 H          3.5157438928       -1.9570056106        2.3637913099
 H          3.6935171039       -3.1387100601        1.0570804526
 H          5.1324799639       -1.2478962894       -2.8933466318
 H          5.6803343318       -2.8911963755       -2.5361629160
 H          3.8229770850       -3.2754227363       -1.0367476559
 H          3.1751550431       -2.5697593970       -2.5287204177
 O          2.5292133268       -0.3715875552       -1.6646522583
 C          1.9404292794        0.7751663580       -1.1454725829
 O          1.3988710342        1.4930144717       -2.0023868838
 H         -0.3248711317        0.5930245634        2.0003061287
 C         -0.8353468124        1.1661333104        1.2348516306
 C         -0.1177313185        2.1261739384        0.5235020699
 C         -0.7862470052        2.8202305691       -0.4767641790
 C         -2.1227266725        2.5657727855       -0.7390472990
 C         -2.8227442562        1.6067633508       -0.0317304967
 C         -2.1627004202        0.8925654928        0.9591262781
 N         -2.8548907588       -0.1300900356        1.6540264775
 S         -3.1158279978       -1.5091377986        0.7172781333
 O         -3.3374437433       -2.5820667728        1.6629779007
 O         -2.0465477500       -1.7070614750       -0.2371227325
 C         -4.6384626882       -1.1472731711       -0.1289281407
 C         -4.6383645740       -0.9753504497       -1.4990391702
 C         -5.8340354799       -0.6810779695       -2.1360966029
 C         -7.0004978086       -0.5645652737       -1.3953725495
 C         -6.9833369412       -0.7422370956       -0.0197424491
 C         -5.7918505814       -1.0369183191        0.6233952537
 H         -5.7320530428       -1.1883446541        1.6881435077
 H         -7.8926533600       -0.6512946390        0.5520638636
 H         -7.9285809902       -0.3341077800       -1.8941930847
 H         -5.8487113614       -0.5422206889       -3.2052002325
 H         -3.7047700343       -1.0690874598       -2.0308859226
 H         -2.3787770788       -0.4089599310        2.5019880483
 H         -3.8599069840        1.4030495218       -0.2421520884
 H         -2.6210686293        3.1185931933       -1.5207780917
 H         -0.2692186235        3.5390031332       -1.0857131676
 C          1.3497251671        2.2040607389        0.8618075015
 H          1.4272221030        2.0154971366        1.9449142653
 C          2.1529075759        3.4737323266        0.6263326202
 C          2.2455062717        4.2369447609       -0.6590684163
 C          1.5530978002        4.8438230291        0.5245613883
 H          2.0487025132        5.6521900674        1.0414335760
 H          0.4783849043        4.9269195076        0.5116490744
 H          1.6767883894        3.8874352901       -1.5043807621
 H          3.2165370233        4.6247201016       -0.9335999652
 H          3.0850418965        3.4092418676        1.1837809501
 O          2.6068359487        0.1595426358        2.3606491066
