  62
        -98.93505848
 C          2.0806250214        1.2247666442        0.3212229663
 C          2.7769307500        0.4423572421        1.2779673466
 C          4.0851697768       -0.0759888590        0.8685343414
 C          4.5517224117        0.1961040138       -0.3634967870
 C          5.8751736002       -0.2449182050       -0.9271640012
 C          5.8620039467       -1.6642772908       -1.5111499070
 C          5.7987808101       -2.7920425207       -0.4802070359
 H          6.0167544403       -3.7220320948       -1.0091210218
 H          6.5842071237       -2.6486428171        0.2625726021
 C          4.4415482144       -2.9324576072        0.2233466838
 H          3.6770986297       -2.4012330772       -0.3489642969
 H          4.1492508912       -3.9849214204        0.2442986191
 C          4.4200681787       -2.4277290820        1.6662870779
 H          5.0834976555       -3.0419970320        2.2792245457
 H          3.4040280355       -2.5409899427        2.0532376205
 C          4.8274857349       -0.9573124180        1.8273447255
 H          4.5697152882       -0.6395358256        2.8406553384
 H          5.9029808852       -0.8481123676        1.6895876722
 H          5.0172814517       -1.7515601661       -2.1985295940
 H          6.7781265766       -1.7854142249       -2.0937886393
 H          6.1198146017        0.4545594916       -1.7293544680
 H          6.6440117593       -0.1739584209       -0.1572664583
 O          3.8531492903        0.9410118158       -1.2570346866
 C          2.5971101059        1.4583135364       -0.9549994676
 O          2.0813527451        2.0863371194       -1.8942663452
 H         -0.4759833617       -0.5363332859        1.1524263506
 C         -0.8394638837       -0.0938431961        0.2334835306
 C         -0.3407647350        1.1448851132       -0.1621979965
 C         -0.8097701823        1.6817213863       -1.3553582542
 C         -1.7425912563        0.9978956085       -2.1175242019
 C         -2.2294186943       -0.2327046559       -1.7193644011
 C         -1.7649507421       -0.7854368240       -0.5327156785
 N         -2.2533348113       -2.0343687817       -0.1112187825
 S         -3.9085884805       -2.2771409559       -0.1760650628
 O         -4.1886925050       -3.2575914773        0.8493619304
 O         -4.2935489000       -2.6418988560       -1.5167210960
 C         -4.6203987060       -0.6971217205        0.2492047777
 C         -4.3300637802       -0.1671823496        1.4910246610
 C         -4.8322119530        1.0807068232        1.8214543575
 C         -5.6125162818        1.7742612247        0.9087721577
 C         -5.9011393522        1.2255782594       -0.3308416714
 C         -5.3989090011       -0.0213102593       -0.6678198581
 H         -5.5947259112       -0.4824252009       -1.6221220638
 H         -6.5103527180        1.7659231165       -1.0372673771
 H         -5.9976157098        2.7480188965        1.1671302890
 H         -4.6090063518        1.5089415835        2.7854243907
 H         -3.7246299006       -0.7338755581        2.1802945155
 H         -1.8701483230       -2.3490535015        0.7678845729
 H         -2.9447184917       -0.7794701980       -2.3120779913
 H         -2.0890836676        1.4314932588       -3.0432718743
 H         -0.4241769942        2.6162704999       -1.7198625810
 C          0.7112824969        1.7553201562        0.7294676924
 H          0.5581173033        1.3149718308        1.7273580196
 C          0.7180618626        3.2591925659        0.9695987451
 C          0.8192390775        4.3266929433       -0.0766126999
 C         -0.4548815637        4.1510163363        0.6931327046
 H         -0.7111064684        4.8979849164        1.4295934740
 H         -1.3047325545        3.7218926641        0.1862920219
 H          1.4390458504        5.1825990412        0.1521277306
 H          0.8731024584        4.0331263570       -1.1112203296
 H          1.2674581883        3.4722787899        1.8838573978
 O          2.3237588591        0.1900619462        2.4279112664
