  62
        -98.94803441
 C          1.2660823844        1.0458404431        0.0111949597
 C          1.6264062179       -0.0412811595        0.8418588810
 C          2.6547020940       -0.9448943243        0.3118518081
 C          3.1345893572       -0.7370048605       -0.9278500984
 C          4.2110810061       -1.5558299264       -1.5783154518
 C          5.6020401725       -0.9683623721       -1.3010651472
 C          5.8578324728       -0.6567387548        0.1734479336
 H          6.8788282408       -0.2774915228        0.2530881644
 H          5.1894516714        0.1479899815        0.4877109603
 C          5.6828210466       -1.8565789531        1.1147483838
 H          5.7158397401       -2.7843968767        0.5425002154
 H          6.5201820578       -1.8774049248        1.8153675277
 C          4.4028489582       -1.8240254750        1.9518297934
 H          4.3198137529       -0.8574804785        2.4550375431
 H          4.4835247667       -2.5913759566        2.7263224105
 C          3.0980057323       -2.0828905632        1.1875852818
 H          3.1849254382       -3.0035674514        0.6061999750
 H          2.3011516849       -2.2215499301        1.9245930366
 H          6.3522987400       -1.6742355328       -1.6619758926
 H          5.7049129946       -0.0417330083       -1.8704401137
 H          4.1545076732       -2.5783065823       -1.2092387572
 H          4.0342758592       -1.5602819469       -2.6553932138
 O          2.7198604932        0.2822544085       -1.7225607214
 C          1.7781280300        1.1990079107       -1.2768586029
 O          1.4884713330        2.0817149533       -2.1068619795
 H         -0.8337247789       -0.1541028680       -0.6108634232
 C         -1.4345031677        0.7179581822       -0.8169768958
 C         -1.0218921421        1.9599760661       -0.3554889341
 C         -1.7967373104        3.0707616285       -0.6664707226
 C         -2.9429931600        2.9316991607       -1.4299605609
 C         -3.3565288061        1.6892885588       -1.8756239792
 C         -2.5911246681        0.5712431320       -1.5647955365
 N         -2.9674131939       -0.7120437396       -1.9889670275
 S         -2.6833053345       -2.0236659735       -0.9906851042
 O         -1.2866454568       -2.3812019077       -1.0092573761
 O         -3.5979211317       -3.0375799876       -1.4723293726
 C         -3.1920154745       -1.4785003929        0.6302507929
 C         -4.5464205711       -1.2901120409        0.8327454889
 C         -4.9853230096       -0.8178836011        2.0579971698
 C         -4.0653322888       -0.5363153292        3.0571223871
 C         -2.7114568263       -0.7362133629        2.8408677513
 C         -2.2657945527       -1.2122958889        1.6171421068
 H         -1.2146068893       -1.3680262127        1.4304299683
 H         -1.9872886880       -0.5199916067        3.6102952394
 H         -4.4042485090       -0.1618993449        4.0101574795
 H         -6.0388929140       -0.6675452295        2.2296635472
 H         -5.2301185071       -1.5314925986        0.0351378088
 H         -3.8691963550       -0.7672118838       -2.4387376356
 H         -4.2534429491        1.5835698108       -2.4661358562
 H         -3.5292553625        3.8042682711       -1.6745860706
 H         -1.4983267760        4.0461178480       -0.3187988078
 C          0.2199997170        2.0288780526        0.5003003269
 H         -0.0545375612        1.6829827478        1.5092021525
 C          0.8019864635        3.4235070382        0.6056330197
 C          0.3213284287        4.3699302375        1.6638746126
 C          1.6819207901        3.7524967099        1.7733849105
 H          2.5493969609        4.3733825577        1.6071225583
 H          1.8354474264        2.9780750229        2.5109409531
 H          0.2562964974        5.4204943050        1.4237829262
 H         -0.4467940318        4.0205883510        2.3370223595
 H          1.0800047415        3.8297641814       -0.3602574886
 O          1.1078753387       -0.2468395789        1.9733094173
