  62
        -98.94586597
 C         -2.1954195753       -0.0021489431       -0.1101363328
 C         -2.1466582038       -1.0720465919       -1.0413684034
 C         -1.6476699044       -2.3548833641       -0.5333313475
 C         -1.2972956661       -2.4694158873        0.7599400940
 C         -0.8022944394       -3.7164838429        1.4404255120
 C          0.7046501727       -3.9609618988        1.2825288689
 C          1.1464384708       -4.4067878346       -0.1114709728
 H          2.1791018785       -4.7505405741       -0.0267753745
 H          0.5442758825       -5.2580405622       -0.4311886475
 C          1.0836272156       -3.3032008321       -1.1764485014
 H          2.0033508501       -3.3058695857       -1.7667093224
 H          1.0339085428       -2.3232758268       -0.6952862973
 C         -0.0792361670       -3.4283124984       -2.1615792444
 H         -0.0444672755       -2.5617799349       -2.8280957323
 H          0.0500855391       -4.3266680619       -2.7700852206
 C         -1.4677525541       -3.4770597614       -1.5093859252
 H         -2.2186718654       -3.3612441746       -2.2951124019
 H         -1.6188004281       -4.4390269570       -1.0192898537
 H          1.2417626552       -3.0493673572        1.5542129103
 H          0.9841619629       -4.7403242542        1.9949633017
 H         -1.3528829197       -4.5796117916        1.0653107106
 H         -1.0226975696       -3.5989575022        2.5035738284
 O         -1.3776049648       -1.4286284669        1.6277577930
 C         -1.7628481344       -0.1578831697        1.2080483272
 O         -1.6760769003        0.7047252641        2.0997447555
 O         -2.5026118832       -0.9576077924       -2.2449971923
 C         -2.5809043194        1.3702400790       -0.6376085274
 C         -1.4641317833        2.3327134166       -0.3195309010
 C         -1.5876276434        3.4101259132        0.5465116791
 C         -0.4907781961        4.2082463857        0.8222868622
 C          0.7431937370        3.9421857299        0.2574914878
 C          0.8772069023        2.8668561303       -0.6150925569
 C         -0.2293110383        2.0863718287       -0.9087233600
 H         -0.1244982536        1.2567507692       -1.5937828430
 N          2.1146847716        2.5842983279       -1.2197936678
 S          2.7125672605        1.0297915270       -1.3444246010
 O          4.0445284750        1.2027918713       -1.8810815997
 O          1.8142491259        0.2103683104       -2.1151084027
 C          2.8287560702        0.4235336296        0.3277135806
 C          4.0563181151        0.4236128357        0.9611534244
 C          4.1343569389       -0.0147274161        2.2731817618
 C          2.9868647807       -0.4290965160        2.9328488836
 C          1.7603864073       -0.4162297985        2.2863263714
 C          1.6800455695        0.0080654535        0.9695873455
 H          0.7386475347        0.0242136664        0.4419817373
 H          0.8573766310       -0.7202331994        2.7933321376
 H          3.0444786493       -0.7649396795        3.9561610387
 H          5.0864745785       -0.0280024577        2.7787546124
 H          4.9208247243        0.7554076750        0.4093003083
 H          2.8556526637        3.2204476239       -0.9627992576
 H          1.5985938256        4.5594744601        0.4867446653
 H         -0.5948980748        5.0415289338        1.5004329742
 H         -2.5342684353        3.6079363326        1.0215874277
 H         -2.6046410198        1.2365779390       -1.7326547724
 C         -3.9601087055        1.8685692296       -0.2403184147
 C         -5.0858983496        0.9030548762       -0.0218013237
 C         -4.5414929251        1.6922222109        1.1290028204
 H         -5.1477856909        2.4925594626        1.5279754266
 H         -3.9450331372        1.1855651773        1.8698418329
 H         -6.0630449388        1.1536944003       -0.4066140207
 H         -4.8522793797       -0.1507734456       -0.0743844615
 H         -4.2125735382        2.7900508066       -0.7570395638
