  62
        -98.94134662
 C          1.0610693603        1.2582896094        0.5314275301
 C          1.4978396207        0.5253524096       -0.5962140899
 C          2.3133001307       -0.6711715703       -0.3166278999
 C          2.4915910903       -1.0653059506        0.9556090801
 C          3.2217413103       -2.2830282206        1.4661759201
 C          4.5768088805       -2.6132549604        0.8244940204
 C          5.3964962206       -1.3935133002        0.3784017209
 H          4.9605436903       -0.4801043803        0.7871391510
 H          6.4070853204       -1.4794323002        0.7821264512
 C          5.5085176410       -1.2703648498       -1.1432984790
 H          6.3676281811       -0.6382530497       -1.3802499686
 H          5.7065202513       -2.2599617297       -1.5606850191
 C          4.2934204912       -0.6645582998       -1.8448777493
 H          4.2150911910        0.3974368501       -1.5969476991
 H          4.4605290416       -0.7306442396       -2.9224472092
 C          2.9438879712       -1.3237605000       -1.5140060798
 H          2.2631579814       -1.1390412199       -2.3492197700
 H          3.0605426012       -2.3970447300       -1.3844580700
 H          4.4266062409       -3.2722378902       -0.0294143098
 H          5.1435864504       -3.1822700905        1.5633511105
 H          3.3578993699       -2.1043130508        2.5355836401
 H          2.5577479004       -3.1475688507        1.3693940497
 O          1.9616039499       -0.3807675409        2.0114878300
 C          1.2825694799        0.8127450491        1.8332119001
 O          0.9300049495        1.3688050388        2.8939761501
 H         -1.6141705299        0.9477681890        1.1781728092
 C         -1.8886467397        1.4288968491        0.2502514392
 C         -1.0032537296        2.3199472993       -0.3459306003
 C         -1.3813596892        2.9478224796       -1.5249314203
 C         -2.6136977390        2.6786960396       -2.0949155308
 C         -3.4900973791        1.7895620294       -1.5021313412
 C         -3.1260694395        1.1638214791       -0.3138955813
 N         -4.0208665196        0.2946605489        0.3304448883
 S         -3.5037789297       -1.0965601012        1.0891096281
 O         -4.7221348297       -1.8469082514        1.3072058376
 O         -2.7353478701       -0.7797977114        2.2657156785
 C         -2.4980715192       -1.9507209008       -0.1086339817
 C         -1.1307886793       -2.0189177607        0.0551184287
 C         -0.3774493689       -2.6960722805       -0.8907760112
 C         -0.9989029585       -3.2760163403       -1.9850077115
 C         -2.3746868785       -3.1943203104       -2.1389382919
 C         -3.1334222388       -2.5283049507       -1.1914425320
 H         -4.2070369788       -2.4637403908       -1.2612549724
 H         -2.8551210581       -3.6491283703       -2.9901257422
 H         -0.4047369682       -3.7968169701       -2.7190041214
 H          0.6912124811       -2.7566600704       -0.7681703909
 H         -0.6783768596       -1.5502164009        0.9161472790
 H         -4.8848436694        0.1375925089       -0.1677133320
 H         -4.4530373490        1.5857233394       -1.9446252316
 H         -2.8946770188        3.1689287497       -3.0144698008
 H         -0.7116873492        3.6446065297       -2.0003897000
 C          0.3141168802        2.5672872793        0.3484501701
 H          0.0907066998        2.9292060491        1.3630804502
 C          1.1956498603        3.5824254896       -0.3486838094
 C          0.9609175001        5.0473230395       -0.1411003491
 C          2.1594609800        4.3863231795        0.4691228011
 H          3.1342142101        4.5997525997        0.0565148115
 H          2.1659062796        4.2184450693        1.5367913311
 H          1.1156537303        5.7187578497       -0.9719978989
 H          0.1533888799        5.3353065793        0.5149901507
 H          1.5286930707        3.2489080198       -1.3243782093
 O          1.2319850810        0.8503369899       -1.7811840399
