  62
        -98.93561017
 C         -1.9683634948       -0.7836772238        0.5433095444
 C         -2.7427341675        0.3075701268        1.0174999923
 C         -4.1727638140        0.3029493793        0.6788383903
 C         -4.6702018480       -0.7251376897       -0.0317695897
 C         -6.0839276135       -0.8455150165       -0.5251960106
 C         -6.2877552527        0.0556612120       -1.7598289843
 C         -7.2655762086        1.2106086953       -1.5427094953
 H         -7.1632878135        1.8897647948       -2.3918031620
 H         -8.2851728729        0.8196873514       -1.5545028889
 C         -7.0842379029        2.0042679315       -0.2452133023
 H         -7.6572656640        2.9275076996       -0.3546891005
 H         -7.5324231085        1.4573208848        0.5856481564
 C         -5.6396071799        2.3633564886        0.1265407769
 H         -5.0057262141        2.3799029767       -0.7604481662
 H         -5.6360204528        3.3750696698        0.5375425604
 C         -5.0043795695        1.4469881780        1.1891415873
 H         -5.7837175577        1.0642207887        1.8541772774
 H         -4.3171049801        2.0421124746        1.7979220913
 H         -5.3150439843        0.4523899138       -2.0583558292
 H         -6.6504918664       -0.5466252680       -2.5940859361
 H         -6.2486122287       -1.8909806108       -0.7864956531
 H         -6.7753061818       -0.5710141995        0.2683475959
 O         -3.9035397430       -1.7585678267       -0.4584964224
 C         -2.5416049852       -1.8181902591       -0.1966009079
 O         -1.9914149817       -2.8269198443       -0.6790538115
 O         -2.2549350406        1.2457278379        1.7052570174
 C         -0.4943867662       -0.7727174822        0.9051551837
 C          0.3791518934       -0.2375591347       -0.2048851736
 C          0.3009144249       -0.7296225777       -1.5036999241
 C          1.1304084816       -0.2329947603       -2.4925196865
 C          2.0725922468        0.7383598779       -2.2013199475
 C          2.1687029130        1.2258764101       -0.9043795067
 C          1.3140401078        0.7474595285        0.0794181703
 H          1.3961839908        1.1483080301        1.0782197732
 N          3.1380940780        2.1892011649       -0.5566691011
 S          4.2754367805        1.7316124923        0.5873401061
 O          3.6277002347        1.4913975860        1.8501019403
 O          5.2787865579        2.7717128592        0.5623122932
 C          4.9538540725        0.2153951157       -0.0647475602
 C          4.2721071902       -0.9682602023        0.1386243558
 C          4.7572109128       -2.1267768655       -0.4475720231
 C          5.9075631029       -2.0835226777       -1.2201990641
 C          6.5827494692       -0.8873816861       -1.4110632276
 C          6.0992052321        0.2759731053       -0.8346077440
 H          6.5918690564        1.2273531910       -0.9550603466
 H          7.4789673721       -0.8573229470       -2.0095668543
 H          6.2793382448       -2.9881999072       -1.6748448598
 H          4.2291751724       -3.0554564738       -0.3015978683
 H          3.3815244950       -0.9701577745        0.7454492536
 H          3.6109548935        2.5923176533       -1.3540449597
 H          2.7271055959        1.1175009453       -2.9717042706
 H          1.0515088866       -0.6166191768       -3.4983094125
 H         -0.4144725864       -1.5051527215       -1.7292023744
 H         -0.4133190805       -0.0743706371        1.7497662233
 C          0.0332818472       -2.1226577213        1.3552248508
 C          1.2215889627       -2.1706803673        2.2667556533
 C         -0.1371932650       -2.5360969802        2.7844090135
 H         -0.3489729147       -3.5727485598        2.9986013562
 H         -0.6325311012       -1.8432906623        3.4493273608
 H          1.9449482191       -2.9602801672        2.1305159776
 H          1.6495350285       -1.2320290704        2.5898364436
 H         -0.0579777819       -2.8913904857        0.5988565577
