  62
        -98.93906556
 C          2.3889752430        0.2619311212        0.6052810619
 C          3.1899300059        0.7696648508       -0.4479324663
 C          4.2681779823       -0.1189726365       -0.9085944942
 C          4.4033416463       -1.3487085437       -0.3829856399
 C          5.4375025649       -2.3709858222       -0.7694600340
 C          6.7885372664       -2.1868755241       -0.0643926346
 C          7.6191812830       -0.9975414436       -0.5485672777
 H          8.6208499324       -1.1157038184       -0.1304412910
 H          7.7126604831       -1.0395405609       -1.6341412362
 C          7.0684589653        0.3728272256       -0.1298502074
 H          6.3545007648        0.2436983998        0.6870046840
 H          7.8836093496        0.9912465783        0.2527666364
 C          6.3950188169        1.1564608651       -1.2565960680
 H          6.0105736022        2.0915914569       -0.8415476476
 H          7.1337805458        1.4061364430       -2.0213070248
 C          5.2274140981        0.4204899552       -1.9266652049
 H          5.6023880800       -0.3826677595       -2.5604319233
 H          4.6835257751        1.1347974131       -2.5493962269
 H          6.6116702458       -2.0951764874        1.0098622678
 H          7.3681962111       -3.0982346372       -0.2284979818
 H          5.0314341891       -3.3450312383       -0.4878606837
 H          5.5839066474       -2.3552987013       -1.8498440318
 O          3.5716352888       -1.8242899156        0.5832117052
 C          2.5702371343       -1.0281388044        1.1107299459
 O          1.9110063723       -1.5728573099        2.0211021007
 O          3.0338217202        1.8939548934       -0.9863644454
 C          1.2666943347        1.0561988143        1.2541360696
 C         -0.0263946807        0.8296310946        0.5145734439
 C         -0.1314285591        1.0797284884       -0.8506747799
 C         -1.3246893707        0.8542781593       -1.5113083489
 C         -2.4317154928        0.3735096465       -0.8324583052
 C         -2.3304109448        0.0976438512        0.5239692230
 C         -1.1320763576        0.3337482693        1.1879028650
 H         -1.0526504174        0.1065959097        2.2425456762
 N         -3.4435870279       -0.3820591902        1.2282726236
 S         -4.4819231187       -1.4900666141        0.5205869908
 O         -5.1465826470       -2.1346321479        1.6317951489
 O         -3.7939088835       -2.3572564798       -0.4072556443
 C         -5.6563065885       -0.4675880938       -0.3445937680
 C         -6.2515787608        0.5693670307        0.3469326746
 C         -7.1728696344        1.3696288219       -0.3093005612
 C         -7.4851645385        1.1187948046       -1.6371626949
 C         -6.8829846801        0.0707779635       -2.3161039520
 C         -5.9590979739       -0.7326253033       -1.6657110969
 H         -5.4612002136       -1.5540658973       -2.1563947562
 H         -7.1275368950       -0.1233483179       -3.3481030187
 H         -8.2017019519        1.7440164185       -2.1460409577
 H         -7.6430817428        2.1856326953        0.2154821319
 H         -5.9839259090        0.7308262939        1.3777126830
 H         -3.2564112737       -0.6137465336        2.1927082081
 H         -3.3599435173        0.1912645608       -1.3483621640
 H         -1.3962414606        1.0554768416       -2.5695027173
 H          0.7320166169        1.4495579308       -1.3826893274
 H          1.1522803330        0.6164211033        2.2579227765
 C          1.6075648749        2.5281603317        1.4453178444
 C          0.9096234317        3.6472011153        0.7386624950
 C          0.6585801050        3.4154650225        2.1962029165
 H          1.0594283499        4.1150751753        2.9139191840
 H         -0.2948944998        2.9921566140        2.4755445263
 H          1.5071913379        4.4951092396        0.4407639653
 H          0.1232779131        3.4036819207        0.0424010832
 H          2.6645769085        2.6738374324        1.6425752865
