  62
        -98.93579428
 C          1.6769010062        1.3454473787        0.1721373881
 C          1.9723251506        0.1444278671       -0.5121345165
 C          3.3274277111       -0.4134911220       -0.3213038784
 C          4.2010101463        0.2292794181        0.4730334579
 C          5.6174089669       -0.1470623500        0.8274265995
 C          6.5105185725       -0.6404331713       -0.3213403986
 C          6.8304900036       -2.1343411839       -0.2446390453
 H          7.7591775457       -2.3214123168       -0.7884162285
 H          7.0066542960       -2.3986840144        0.8002135160
 C          5.7614308572       -3.0583259439       -0.8253958620
 H          5.7633810281       -2.9737260753       -1.9143293411
 H          6.0428232076       -4.0850201450       -0.5793811676
 C          4.3376399956       -2.8068434228       -0.3248617204
 H          4.3397893335       -2.5990410687        0.7446702288
 H          3.7666163051       -3.7269441206       -0.4680719480
 C          3.6111944353       -1.6826312655       -1.0786159888
 H          4.1578106749       -1.4330791481       -1.9924911450
 H          2.6284367337       -2.0370246491       -1.4045143019
 H          6.0511898402       -0.3994777373       -1.2786761063
 H          7.4526099845       -0.0923328499       -0.2686273376
 H          6.0464993510        0.7552661401        1.2691132499
 H          5.5877156696       -0.8968896280        1.6221064107
 O          3.8705645901        1.3796021095        1.1255961653
 C          2.6260881046        1.9607113415        0.9948921615
 O          2.4842456888        3.0152906356        1.6451893867
 H         -0.5638974182       -0.4753573692        0.0244053138
 C         -1.0724479613        0.1149308982        0.7721831883
 C         -0.7151330781        1.4443365122        0.9458824472
 C         -1.3833436667        2.1889259529        1.9103663423
 C         -2.3839722930        1.6166726604        2.6774370866
 C         -2.7362865411        0.2902102991        2.5014124416
 C         -2.0666758225       -0.4627189211        1.5466257351
 N         -2.4284690254       -1.8162851214        1.3458485881
 S         -3.9440957303       -2.0197000870        0.6565507472
 O         -4.9464246487       -1.6466371595        1.6220168397
 O         -3.9873079854       -3.3850563037        0.1845234710
 C         -3.9578762315       -0.8806184632       -0.7152307163
 C         -4.4392351427        0.3992221674       -0.5272111516
 C         -4.3650419391        1.3013666841       -1.5758645726
 C         -3.8101149053        0.9110038914       -2.7847238875
 C         -3.3264783927       -0.3767685965       -2.9560415810
 C         -3.3947787715       -1.2820276005       -1.9098505795
 H         -3.0322504834       -2.2933807088       -2.0039976499
 H         -2.8907283729       -0.6758352472       -3.8959592286
 H         -3.7556102879        1.6133481134       -3.6019701062
 H         -4.7348453559        2.3054132984       -1.4446889457
 H         -4.8648376042        0.6614696129        0.4273970547
 H         -1.7484143702       -2.3118143818        0.7847474110
 H         -3.5229811624       -0.1695298973        3.0775379831
 H         -2.8943609411        2.2091496792        3.4214316085
 H         -1.1078814252        3.2221303620        2.0634064457
 C          0.3440062263        2.0718267678        0.0723681417
 H          0.5361641948        3.0835114626        0.4534121818
 C         -0.1667896954        2.1865397170       -1.3523205243
 C         -1.0861437314        3.3150417220       -1.7037558601
 C          0.3222470024        3.3078359438       -2.2162269254
 H          0.4928826151        3.1130223972       -3.2642195419
 H          1.0286889756        4.0007587481       -1.7819136262
 H         -1.3361902723        4.0180176141       -0.9239096858
 H         -1.8870738171        3.1248813231       -2.4001437288
 H         -0.3374779103        1.2289758825       -1.8261286231
 O          1.1568293391       -0.4674125686       -1.2553875456
