  62
        -98.93857895
 C          1.4367596906        1.6188170548       -0.1925542101
 C          1.4649995839        0.2160992353       -0.3791130286
 C          2.8015842376       -0.3928821744       -0.4810491705
 C          3.8891468757        0.3943161906       -0.3946818905
 C          5.3138517229       -0.0831788147       -0.4046837218
 C          5.6796498058       -0.6839852613        0.9676155403
 C          5.9792255640       -2.1828832572        0.9390199147
 H          6.0124252331       -2.5295812021        1.9741496305
 H          6.9706722490       -2.3383480005        0.5082598528
 C          4.9861999028       -3.0459758566        0.1549749456
 H          5.1750693021       -4.0835578561        0.4386653474
 H          5.1996369735       -2.9719300680       -0.9123724728
 C          3.5012356319       -2.7342784016        0.3824390869
 H          3.3522973718       -2.2536328862        1.3494086094
 H          2.9575575981       -3.6804788730        0.4108842949
 C          2.8498934427       -1.8770367465       -0.7182417944
 H          1.8003847619       -2.1715347166       -0.8140944685
 H          3.3402634761       -2.0780331500       -1.6747758911
 H          4.8555659194       -0.4893856336        1.6571718185
 H          6.5531156933       -0.1682735159        1.3697375772
 H          5.9441315634        0.7794383301       -0.6218947644
 H          5.4486618845       -0.8200451768       -1.1934172906
 O          3.8179896537        1.7390655643       -0.2062802068
 C          2.5965262230        2.3851332169       -0.0999822273
 O          2.6766844237        3.6177620975        0.0777583480
 O          0.4293001148       -0.4915521054       -0.4589167654
 C          0.0977772666        2.3280575131       -0.0962038908
 C         -0.7337870850        1.6838914821        0.9851339685
 C         -0.1974111309        1.5748344304        2.2661959080
 C         -0.9084792909        0.9638196450        3.2799826792
 C         -2.1644768814        0.4353678141        3.0358464488
 C         -2.7121757609        0.5483522079        1.7643139240
 C         -2.0041710041        1.1835665377        0.7526454353
 H         -2.4621708820        1.2726242519       -0.2171025538
 N         -3.9867816163        0.0362477994        1.4893615292
 S         -4.3723345193       -0.5579897848       -0.0217654710
 O         -4.5881512006        0.5311267550       -0.9420705603
 O         -5.5229053178       -1.4041226163        0.2213819250
 C         -3.0036337517       -1.5651371019       -0.5614485616
 C         -2.4474608112       -1.3457073017       -1.8036123851
 C         -1.4192587388       -2.1672591157       -2.2333775018
 C         -0.9651091875       -3.1877100913       -1.4150010334
 C         -1.5308771759       -3.3931619000       -0.1671094531
 C         -2.5625885038       -2.5778400327        0.2655445437
 H         -3.0267797444       -2.7198079966        1.2282830451
 H         -1.1670284397       -4.1825631589        0.4712689173
 H         -0.1599785497       -3.8229442450       -1.7506739066
 H         -0.9683766665       -2.0015732403       -3.1991172651
 H         -2.8252576625       -0.5349809345       -2.4069946145
 H         -4.4016374354       -0.5097994329        2.2293230185
 H         -2.7162775244       -0.0559758471        3.8225598595
 H         -0.4786242364        0.8866643863        4.2674599433
 H          0.7920219562        1.9716781478        2.4515280768
 H          0.3154184928        3.3643308652        0.2001159108
 C         -0.5783222729        2.3370087152       -1.4511755014
 C         -1.5814248123        3.3979720716       -1.7867820834
 C         -0.2315087930        3.4088270105       -2.4380722626
 H         -0.1592110134        3.1451385261       -3.4825986569
 H          0.4823741352        4.1577500410       -2.1267932900
 H         -2.4426289723        3.1259268486       -2.3789342693
 H         -1.7876597385        4.1451869176       -1.0352356822
 H         -0.7442485650        1.3376004255       -1.8381006448
