  62
        -98.93944853
 C         -1.7919407597       -0.2403753803        0.1730223199
 C         -2.5534706900        0.4119361398       -0.8260028797
 C         -3.9512464300       -0.0185402104       -0.9555755196
 C         -4.4134410296       -0.9975804408       -0.1563098098
 C         -5.8299908795       -1.4929765411       -0.1422233397
 C         -6.6789492395       -0.7165409215        0.8743267507
 C         -6.5425631398        0.8020149185        0.7626857411
 H         -7.2065389098        1.2434042382        1.5090933013
 H         -5.5229924698        1.0887945286        1.0301683410
 C         -6.8816622102        1.3700828889       -0.6225619987
 H         -7.5107552604        2.2534929687       -0.4942888983
 H         -7.4603062702        0.6407286289       -1.1906659288
 C         -5.6669175304        1.8039884293       -1.4448670888
 H         -5.0352460905        2.4636872193       -0.8447177087
 H         -6.0245427207        2.3829330795       -2.3005512585
 C         -4.7936975303        0.6684503497       -1.9932179593
 H         -5.4184013102       -0.0528525103       -2.5240600294
 H         -4.0903831705        1.1056582200       -2.7081224593
 H         -7.7241862795       -1.0008806717        0.7395473308
 H         -6.3727138793       -1.0144211918        1.8797968505
 H         -6.2552401197       -1.3918630809       -1.1389567596
 H         -5.8230968193       -2.5486566412        0.1344811600
 O         -3.6451817593       -1.6213168309        0.7729629299
 C         -2.3213445094       -1.2535170907        0.9738781697
 O         -1.7405800191       -1.8975024708        1.8671106994
 O         -2.0839082104        1.3128792201       -1.5728925796
 C         -0.3579840498        0.1966344399        0.3852182898
 C          0.6451839804       -0.8965422498        0.1046512393
 C          0.3189577105       -2.0087451997       -0.6626917910
 C          1.2503849006       -3.0011165194       -0.9090105714
 C          2.5426268007       -2.8862814093       -0.4293531616
 C          2.8922518206       -1.7610445694        0.3028863287
 C          1.9471185405       -0.7843673697        0.5777404491
 H          2.2343780304        0.0652754602        1.1746474793
 N          4.2240838606       -1.5432391093        0.7480322985
 S          5.1128035103       -0.6225460488       -0.3523349814
 O          4.9910107701       -1.1712442984       -1.6868752715
 O          6.4563894103       -0.5652447487        0.1774916884
 C          4.3532037099        0.9823261311       -0.2924912708
 C          3.4188013897        1.3153302512       -1.2533646005
 C          2.8246029395        2.5659412610       -1.2039435601
 C          3.1767970694        3.4569971308       -0.2007069699
 C          4.1173009797        3.1064367807        0.7569319199
 C          4.7113780699        1.8552924308        0.7155371194
 H          5.4494974001        1.5426833308        1.4355105392
 H          4.3844387797        3.8036383705        1.5345211000
 H          2.7124083293        4.4303810807       -0.1657842995
 H          2.0846538193        2.8361942811       -1.9410000498
 H          3.1760510897        0.5959980213       -2.0189429607
 H          4.7290425208       -2.4050728392        0.9116738581
 H          3.2779240608       -3.6505466391       -0.6328044420
 H          0.9686119607       -3.8669039793       -1.4895983316
 H         -0.6824430496       -2.1012167197       -1.0593118508
 H         -0.1871438101        1.0001385601       -0.3479374900
 C         -0.1932685696        0.7702415495        1.7816840900
 C          0.6620003801        1.9752859496        2.0289671702
 C         -0.8299574299        2.0895292693        2.0997826905
 H         -1.2996359597        2.2175218689        3.0634145206
 H         -1.3412098901        2.5967194394        1.2943603207
 H          1.2236248703        2.0247713095        2.9495818301
 H          1.1597138399        2.4214324500        1.1815378102
 H         -0.2298521994        0.0034065793        2.5470068197
