  62
        -98.94445997
 C          1.7659667893        0.7355509185        0.0184990307
 C          2.9469335394        1.2417341878        0.6128735310
 C          4.1997077093        0.9200014677       -0.0789897290
 C          4.1676632892        0.2047339683       -1.2181987694
 C          5.3588598091       -0.1860618817       -2.0505086195
 C          6.0675420187       -1.4578714321       -1.5645182401
 C          6.8770126086       -1.2992740531       -0.2767923400
 H          7.4904863283       -2.1963238433       -0.1717667704
 H          7.5550969789       -0.4513214932       -0.3776062595
 C          6.0255539886       -1.1326507834        0.9896236401
 H          5.0020573585       -1.4554733530        0.7843916798
 H          6.4135088483       -1.7825560539        1.7772629898
 C          5.9940567390        0.2895119063        1.5497904508
 H          5.3349804289        0.2999377361        2.4216739107
 H          6.9948387691        0.5748264958        1.8813061810
 C          5.4867694694        1.3467714370        0.5601778213
 H          6.2425026095        1.5449508071       -0.1993542286
 H          5.2936854797        2.2693374268        1.1129091717
 H          5.3204708884       -2.2441182520       -1.4319457506
 H          6.7468180786       -1.7762382120       -2.3586949802
 H          4.9858482891       -0.3649819210       -3.0612587596
 H          6.0707506094        0.6391133981       -2.0834582090
 O          3.0088170291       -0.2443649810       -1.7704312097
 C          1.7842125491       -0.0137679209       -1.1575677797
 O          0.8114481990       -0.5130489203       -1.7544078200
 O          2.9528488795        1.9256538872        1.6711637914
 C          0.4341156293        1.0052819986        0.6947301807
 C         -0.2326064512       -0.2955218114        1.0672364200
 C          0.4972369885       -1.2364898020        1.7904358896
 C         -0.0687926219       -2.4411896120        2.1565564089
 C         -1.3760814620       -2.7347199014        1.8092283287
 C         -2.1179821516       -1.8000985308        1.0981997391
 C         -1.5480425712       -0.5849005708        0.7403224898
 H         -2.1387649909        0.1226183697        0.1838617601
 N         -3.4597430517       -2.0516534502        0.7809653589
 S         -4.1279605714       -1.5341337992       -0.6632534609
 O         -5.3299585117       -2.3320150488       -0.7960933314
 O         -3.1947328214       -1.6108605590       -1.7611733209
 C         -4.6022268609        0.1545037508       -0.3589684301
 C         -4.3508962705        1.1093545212       -1.3237903396
 C         -4.7674206901        2.4130547612       -1.1016739090
 C         -5.4240861401        2.7365041208        0.0759574012
 C         -5.6676259705        1.7652554904        1.0353380506
 C         -5.2584223509        0.4595742004        0.8173117600
 H         -5.4339994312       -0.3223252299        1.5367465396
 H         -6.1761877005        2.0220536201        1.9504564407
 H         -5.7446603298        3.7521457308        0.2464241716
 H         -4.5777037098        3.1686798415       -1.8477804186
 H         -3.8245283405        0.8154944814       -2.2186061997
 H         -3.7914051120       -2.9709905702        1.0343485284
 H         -1.8180984423       -3.6797684614        2.0862132082
 H          0.5120284478       -3.1622567125        2.7120560986
 H          1.5205488785       -1.0090159925        2.0570423598
 H          0.6873505294        1.5359433180        1.6251315310
 C         -0.4293011703        1.9103835893       -0.1574360989
 C         -1.4234109801        2.8237260193        0.4937587115
 C         -0.1802480498        3.3875839192       -0.1241198581
 H         -0.2657294396        3.9442064797       -1.0451829478
 H          0.6035521102        3.7425321186        0.5289945321
 H         -2.3679809700        2.9948535098        0.0004141315
 H         -1.4865109302        2.8007352988        1.5710276315
 H         -0.6842349404        1.4661822499       -1.1138512791
