  62
        -98.94565480
 C          1.1129046776        1.4539856272        0.7464324260
 C          1.9990786695        1.4289503331       -0.3570139386
 C          2.9928984170        0.3459333291       -0.3534973940
 C          2.9855746508       -0.5548406598        0.6458839966
 C          3.9122598855       -1.7315745903        0.7415321249
 C          3.3179909169       -2.9747339040        0.0655114619
 C          2.7644033467       -2.7173249464       -1.3354189941
 H          2.3961974005       -3.6708518676       -1.7190372560
 H          1.9051163404       -2.0463309896       -1.2623173423
 C          3.7836735389       -2.1345526502       -2.3241592366
 H          4.7962385357       -2.3037154475       -1.9556352069
 H          3.6923428524       -2.6638882823       -3.2749610285
 C          3.5981383973       -0.6464081907       -2.6244207716
 H          2.5590286823       -0.4533399296       -2.9034124561
 H          4.2206875964       -0.3928144260       -3.4867706776
 C          3.9766103032        0.3126608610       -1.4890934925
 H          4.9789019204        0.0765065900       -1.1256934371
 H          3.9902117543        1.3256028325       -1.9020490286
 H          4.0919328134       -3.7428527922        0.0174736228
 H          2.5023458189       -3.3453837139        0.6875518348
 H          4.8628176324       -1.4723157177        0.2788750208
 H          4.0814634230       -1.9493724959        1.7973128040
 O          2.0994686564       -0.5139753023        1.6743253395
 C          1.1440847692        0.4862109436        1.7504953292
 O          0.3931392211        0.4071218850        2.7435282169
 H         -1.2893826228        0.3030425885        0.2712918918
 C         -1.5100020733        1.0674647746       -0.4604667925
 C         -0.9173961951        2.3182828986       -0.3323803999
 C         -1.2107044307        3.2934630442       -1.2752089332
 C         -2.0652966627        3.0102986987       -2.3272366087
 C         -2.6577948656        1.7669103041       -2.4469221320
 C         -2.3804061373        0.7870897244       -1.4996316745
 N         -2.9551457578       -0.4912045148       -1.5817971120
 S         -3.5208073517       -1.2131974464       -0.1788254583
 O         -4.5057993363       -2.1691650159       -0.6414186737
 O         -3.9926870274       -0.2268770376        0.7648621640
 C         -2.1395120419       -2.1149578301        0.4878485075
 C         -1.7833792707       -1.9349221025        1.8089647088
 C         -0.7557491277       -2.6990536456        2.3379386508
 C         -0.1108512246       -3.6302360346        1.5402157398
 C         -0.4739034478       -3.7939133331        0.2113108563
 C         -1.4991677106       -3.0314849489       -0.3231799446
 H         -1.8161208051       -3.1364821861       -1.3474925355
 H          0.0371058932       -4.5151256614       -0.4062019905
 H          0.6766371333       -4.2352471947        1.9625760419
 H         -0.4604933080       -2.5519588146        3.3642455507
 H         -2.3020796962       -1.1948544229        2.3977736398
 H         -3.6010919835       -0.6162527292       -2.3481448885
 H         -3.3280797390        1.5512120089       -3.2652608588
 H         -2.2781521515        3.7726194911       -3.0613957072
 H         -0.7627871827        4.2700068802       -1.1949954606
 C          0.0300895460        2.5166454782        0.8263486629
 H         -0.5281559403        2.3155845319        1.7525599325
 C          0.6283849299        3.9039620991        0.9078539149
 C         -0.1602774485        5.0220687756        1.5183562288
 C          1.0157659137        4.4482634110        2.2485867168
 H          1.9157440237        5.0397567339        2.3246817691
 H          0.8292369963        3.8248373477        3.1111989675
 H         -0.0673308034        6.0110942241        1.0958946277
 H         -1.1482385070        4.7919984350        1.8884550036
 H          1.2775762754        4.1313151866        0.0708300904
 O          1.9713485488        2.2675725543       -1.2950988455
