  62
        -98.93455156
 C         -2.4680948629       -1.2936464948        0.2736806292
 C         -2.5487987401       -0.1235580781       -0.5141958028
 C         -3.7515226264        0.7123603477       -0.3300157174
 C         -4.7004176261        0.3114899450        0.5350813586
 C         -6.0002863861        0.9874693518        0.8918812549
 C         -6.8202367962        1.5631423268       -0.2730372312
 C         -6.8396313520        3.0923701577       -0.3054195461
 H         -7.7339625389        3.4192818875       -0.8406174232
 H         -6.9211385594        3.4605105380        0.7194182489
 C         -5.6336578131        3.7427400854       -0.9811388100
 H         -5.6932284349        3.5808604143       -2.0596009152
 H         -5.7004154198        4.8198326016       -0.8104724665
 C         -4.2679504719        3.2531400370       -0.4951488135
 H         -4.2697431691        3.1273095605        0.5869241947
 H         -3.5347062023        4.0294432716       -0.7237321984
 C         -3.8011376147        1.9567379310       -1.1739734428
 H         -2.7763261427        2.0810232585       -1.5378779447
 H         -4.4118094794        1.7586718712       -2.0596794668
 H         -7.8484857803        1.2158907117       -0.1596521399
 H         -6.4495261963        1.1685679316       -1.2177380940
 H         -6.5820398966        0.2241967308        1.4136906039
 H         -5.7926429535        1.7730149852        1.6227510819
 O         -4.5802648340       -0.8324370906        1.2698715807
 C         -3.4719456838       -1.6518120467        1.1711139365
 O         -3.4962460280       -2.6499041791        1.9197679166
 O         -1.6574245816        0.2161587424       -1.3358689813
 C         -1.2576632116       -2.2026027842        0.1600146395
 C         -0.0020261817       -1.4219532755        0.4644992177
 C          0.0612076838       -0.6972820221        1.6523354617
 C          1.1868168299        0.0347131728        1.9746779397
 C          2.2764345563        0.0630739809        1.1209233814
 C          2.2309605971       -0.6668769636       -0.0577625719
 C          1.0987809894       -1.4093031806       -0.3757701929
 H          1.0797607740       -1.9687947755       -1.2979385359
 N          3.3210372861       -0.6348047338       -0.9383733485
 S          4.8863087199       -0.6994304518       -0.3524685384
 O          5.6801896775       -1.1751813938       -1.4643018718
 O          4.9679527901       -1.4686044952        0.8674738157
 C          5.2992383327        1.0028809340       -0.0320363176
 C          5.8425099898        1.3607763870        1.1861909265
 C          6.1716297773        2.6887327743        1.4095824296
 C          5.9541901008        3.6300917967        0.4153249652
 C          5.4099129100        3.2540245793       -0.8036938290
 C          5.0799215494        1.9280557504       -1.0336835532
 H          4.6556904714        1.5976680134       -1.9671629172
 H          5.2409999603        3.9889557119       -1.5742910118
 H          6.2099640780        4.6630333300        0.5913511731
 H          6.5946796290        2.9832015719        2.3566117384
 H          5.9881225384        0.5962409156        1.9328378606
 H          3.2043933221       -1.1918884863       -1.7714646854
 H          3.1553008093        0.6368925327        1.3650173816
 H          1.2172036008        0.5943104317        2.8974248538
 H         -0.7918145027       -0.7144437712        2.3177032258
 H         -1.3785343658       -2.9682580683        0.9403180703
 C         -1.2463886039       -2.8848633205       -1.1920048430
 C         -0.5781256708       -4.2155988459       -1.3605214140
 C         -2.0734303646       -4.1188061041       -1.3848964840
 H         -2.5847875302       -4.2556409550       -2.3259147855
 H         -2.6263148313       -4.4829679155       -0.5311121665
 H         -0.0649646598       -4.4238087721       -2.2876117583
 H         -0.1122475656       -4.6551453350       -0.4913009788
 H         -1.2030224351       -2.1796957927       -2.0142851596
