  62
        -98.94454334
 C          2.6178896244        1.2191926106        0.1434310055
 C          2.6442400113        0.2782901202       -0.9143030917
 C          3.4299480195       -0.9413164870       -0.6719575856
 C          4.0722651594       -1.0993525570        0.4987529690
 C          4.8494170999       -2.3192760464        0.8975800739
 C          3.9586422735       -3.3269323865        1.6377555755
 C          2.6381587092       -3.6276967500        0.9276913260
 H          2.1114048847       -4.3767038108        1.5232401393
 H          2.0145372534       -2.7298324657        0.9267489729
 C          2.7917786356       -4.1379290085       -0.5119236244
 H          3.8076046986       -4.5022999226       -0.6701303788
 H          2.1158975048       -4.9835257509       -0.6560759605
 C          2.4488590032       -3.1084675705       -1.5904590109
 H          1.4671598892       -2.6736161179       -1.3798490229
 H          2.3735744867       -3.6317214192       -2.5477814383
 C          3.4603066156       -1.9686129049       -1.7685121887
 H          4.4639004075       -2.3829774863       -1.8821962689
 H          3.2016186974       -1.4358740707       -2.6882427315
 H          4.5207198996       -4.2533701974        1.7685397491
 H          3.7287637262       -2.9251977608        2.6271947038
 H          5.2757320722       -2.7797215851        0.0086127750
 H          5.6590329379       -2.0092889007        1.5603190258
 O          4.0436375505       -0.1669980218        1.4835959896
 C          3.3088943283        0.9957484843        1.3396502887
 O          3.3545120817        1.7521362231        2.3299397602
 H          0.0537867950        1.2052889818       -1.5025656973
 C         -0.3977910082        1.5069257738       -0.5692098686
 C          0.3616685358        2.2022978248        0.3612086290
 C         -0.2261458823        2.5479863711        1.5726788915
 C         -1.5390863757        2.2037254031        1.8426625335
 C         -2.2884064486        1.5004715670        0.9161753525
 C         -1.7061624774        1.1420195908       -0.2921908871
 N         -2.4514821871        0.3947857445       -1.2284430572
 S         -2.9934368410       -1.1041951053       -0.6863291769
 O         -2.1331235141       -1.6351332300        0.3471239729
 O         -3.1489835766       -1.9137398091       -1.8752658659
 C         -4.6041976391       -0.7448737945       -0.0175255485
 C         -4.8896640667       -1.0509744408        1.2984834847
 C         -6.1517127894       -0.7625327382        1.7946915726
 C         -7.1002318897       -0.1770824018        0.9701343021
 C         -6.7982806976        0.1216946231       -0.3503732078
 C         -5.5391238001       -0.1649066798       -0.8527622341
 H         -5.2635535541        0.0474536743       -1.8721964172
 H         -7.5386880112        0.5769839094       -0.9881216300
 H         -8.0806689022        0.0477553850        1.3592909893
 H         -6.3881507397       -0.9944282242        2.8207880188
 H         -4.1175192613       -1.4995990364        1.9030873155
 H         -1.9610650834        0.2764172726       -2.1048998432
 H         -3.3077288201        1.2186975270        1.1248410082
 H         -1.9817482389        2.4797346888        2.7876050833
 H          0.3634727577        3.0702442665        2.3124135868
 C          1.8147908252        2.5123284120        0.0910509942
 H          2.1872357937        3.1249229898        0.9225593071
 C          2.0068620109        3.2870827141       -1.1971477269
 C          1.6633914992        4.7450766527       -1.2220704157
 C          3.0968093942        4.3113600613       -1.2770148376
 H          3.6354173293        4.4177855306       -2.2066561938
 H          3.7093443403        4.4585996435       -0.3992415901
 H          1.3037952975        5.1889340359       -0.3061145769
 H          1.2151075352        5.1528696163       -2.1149442313
 H          1.8094890202        2.7062836946       -2.0879991095
 O          2.0515087211        0.4228283013       -2.0182428076
