  62
        -98.94559219
 C          2.3393800565        0.1777743934        0.1211385439
 C          1.5507630943       -0.4161453334       -0.8886481807
 C          1.3736207527       -1.8775368933       -0.8200795655
 C          1.8867380465       -2.5519828135        0.2255827479
 C          1.8905879804       -4.0290056611        0.5608460812
 C          1.0282409771       -5.0116367336       -0.2253380315
 C         -0.4734074245       -4.8709803609        0.0188277606
 H         -0.9948165845       -5.5580701791       -0.6516699443
 H         -0.6895019550       -5.1783878078        1.0452282768
 C         -1.0429770982       -3.4672531158       -0.1710174735
 H         -2.1180758552       -3.5114767012        0.0293682893
 H         -0.6197708373       -2.7823292634        0.5673299430
 C         -0.8554743171       -2.8732875238       -1.5647886236
 H         -1.2406838296       -3.5677108790       -2.3146055588
 H         -1.4580458393       -1.9627573436       -1.6087787144
 C          0.5886581094       -2.4994178844       -1.9410572498
 H          1.1241615594       -3.3584248628       -2.3406580423
 H          0.5432469903       -1.7448953706       -2.7320601178
 H          1.3222800617       -6.0135197306        0.0993882737
 H          1.2511479602       -4.9445736977       -1.2859529175
 H          2.9372663803       -4.3447537135        0.4844760362
 H          1.6272367823       -4.0922923604        1.6219035848
 O          2.5930960861       -1.9239673094        1.2121479293
 C          2.8373458507       -0.5641136677        1.1885825783
 O          3.5009311943       -0.1402527218        2.1585629450
 H          0.5084813445        1.0738155054        1.6635188925
 C          0.2851998540        1.9211910118        1.0317289519
 C          1.2510205633        2.3968983941        0.1543792270
 C          0.9438886237        3.4988039851       -0.6338946686
 C         -0.3092038968        4.0835319336       -0.5619330348
 C         -1.2859834861        3.5700031109        0.2720220884
 C         -0.9839009715        2.4740325108        1.0720291327
 N         -1.9460036959        1.8879592902        1.9210806404
 S         -2.3526302724        0.2887354412        1.6167283805
 O         -3.3998985547       -0.0173336213        2.5679569697
 O         -1.1770008357       -0.5395548504        1.6745910800
 C         -3.0465106601        0.3204699626       -0.0270587344
 C         -2.2125604452        0.4788219759       -1.1161575766
 C         -2.7781121077        0.5793634123       -2.3790299293
 C         -4.1540657552        0.5193273185       -2.5325020023
 C         -4.9774464581        0.3590518438       -1.4278078788
 C         -4.4208767602        0.2653543035       -0.1628477923
 H         -5.0194852623        0.1414709642        0.7251779520
 H         -6.0477469564        0.3102969683       -1.5476109966
 H         -4.5853306269        0.5974341039       -3.5180111418
 H         -2.1271481913        0.7015349849       -3.2300091592
 H         -1.1425075278        0.5156177689       -0.9836510424
 H         -2.7934096276        2.4320005582        2.0127753514
 H         -2.2723391125        4.0076921701        0.3046583678
 H         -0.5347261534        4.9388336906       -1.1802961099
 H          1.6831727489        3.8952148130       -1.3104347669
 C          2.5779918483        1.6776653902        0.1156600912
 H          3.1176522736        1.9020544287        1.0478360374
 C          3.4449761318        2.0726693771       -1.0616864427
 C          4.3545748595        3.2596756711       -0.9660379204
 C          4.9268376247        1.8748720028       -0.9655190506
 H          5.4601383356        1.5338811926       -1.8400663386
 H          5.3130919616        1.4783304254       -0.0374149441
 H          4.5001107200        3.8706924526       -1.8440828739
 H          4.3634369075        3.8099487006       -0.0372590348
 H          2.9730628573        1.8617072081       -2.0142671428
 O          1.0228165214        0.2438587230       -1.8231178131
