  62
        -98.93623887
 C         -1.0395960456       -1.8781445110       -0.2534527168
 C         -1.2632964442       -0.5106199450       -0.5354862615
 C         -2.5791169726        0.0378681917       -0.1434499457
 C         -3.4903277258       -0.7716931787        0.4232448334
 C         -4.8826983631       -0.4452929858        0.9022278523
 C         -5.7395828892        0.4410392084       -0.0150281160
 C         -5.9669984509        1.8494164640        0.5373889910
 H         -6.8809794078        2.2535963792        0.0963335966
 H         -6.1307468948        1.7768919955        1.6146554704
 C         -4.8409130715        2.8447588470        0.2630808911
 H         -4.8452506580        3.1105558687       -0.7961205227
 H         -5.0601811238        3.7539822270        0.8276405035
 C         -3.4378656453        2.3603173528        0.6341511745
 H         -3.4587133689        1.8192341405        1.5791675016
 H         -2.8083554404        3.2390589978        0.7847013636
 C         -2.7801557013        1.4963903487       -0.4515166633
 H         -3.3378469669        1.5843555027       -1.3881767848
 H         -1.7749892988        1.8735569398       -0.6620330378
 H         -5.2927861565        0.4892460194       -1.0067437072
 H         -6.7139721974       -0.0383067363       -0.1236807907
 H         -5.3677456649       -1.4145495416        1.0391857920
 H         -4.8109096741        0.0079280527        1.8941127292
 O         -3.2326661563       -2.0881608588        0.6723158775
 C         -2.0208138516       -2.6660795124        0.3544663094
 O         -1.9395787740       -3.8762557918        0.6481989088
 H          1.5926049958       -0.2403037166       -0.2247052470
 C          1.9135326743       -0.9996611832        0.4694185124
 C          1.3284913912       -2.2580331543        0.4342482725
 C          1.7337231060       -3.2113143997        1.3621920240
 C          2.7105981734       -2.9150093471        2.2955018073
 C          3.3092288144       -1.6685097092        2.3118118717
 C          2.9032084419       -0.7043125984        1.3952330727
 N          3.4677201195        0.5766487620        1.4138172310
 S          3.6650630911        1.4648609665        0.0112080507
 O          3.9444802321        0.6204250734       -1.1263467079
 O          4.7027012503        2.4199059059        0.3496367958
 C          2.1464518988        2.3633190116       -0.2075214853
 C          1.6758792940        2.5855812757       -1.4846934673
 C          0.5452500508        3.3668530049       -1.6558525560
 C         -0.0915104402        3.9093914886       -0.5512616214
 C          0.3900449546        3.6702379489        0.7267911645
 C          1.5225507382        2.8930262433        0.9036404034
 H          1.9242349760        2.6867716737        1.8820478193
 H         -0.1142524629        4.0848475426        1.5853561883
 H         -0.9717153646        4.5185608943       -0.6889793476
 H          0.1603862656        3.5410559079       -2.6479591027
 H          2.1935476612        2.1345287725       -2.3162890812
 H          4.2381526950        0.7023798977        2.0534939490
 H          4.0804537615       -1.4384657134        3.0312774481
 H          3.0162308757       -3.6642888805        3.0101158712
 H          1.2664756753       -4.1856555824        1.3530023810
 C          0.2624409756       -2.5930984490       -0.5814917994
 H          0.0375151736       -3.6642758373       -0.4868399763
 C          0.7465946615       -2.3336930468       -1.9944004519
 C          1.6668271451       -3.3256846807       -2.6367129736
 C          0.2501408837       -3.2004076132       -3.1102420816
 H          0.0634001934       -2.7466518707       -4.0719463561
 H         -0.4424058072       -3.9908701293       -2.8584482071
 H          2.4590526072       -2.9554830798       -3.2694212738
 H          1.9341886313       -4.2028525530       -2.0665789347
 H          0.9079927479       -1.2867599320       -2.2138464401
 O         -0.4227401453        0.2445395710       -1.0913358443
