  62
        -98.94431581
 C         -1.1389824509       -1.2457907595        0.8344536174
 C         -2.3024185553       -1.3810572560        0.0386208135
 C         -3.2700071683       -0.2758145085        0.1271959382
 C         -2.9887926903        0.7945330908        0.8916393542
 C         -3.8671124534        2.0048621692        1.0245978405
 C         -3.5361395339        3.0719943692       -0.0284028603
 C         -3.4092652049        2.5255001837       -1.4496874378
 H         -3.1799068886        3.3695597255       -2.1039357510
 H         -2.5607216209        1.8388449536       -1.4937217621
 C         -4.6645189162        1.8094003054       -1.9663103815
 H         -5.5260005938        2.0851173111       -1.3567573990
 H         -4.8679209500        2.1457419497       -2.9852286880
 C         -4.5472384293        0.2854695444       -2.0135937141
 H         -5.3953856402       -0.1038719659       -2.5831677158
 H         -3.6369644207        0.0018722832       -2.5476856620
 C         -4.5469953891       -0.4210208013       -0.6525357272
 H         -5.3992928106       -0.0797944662       -0.0612700656
 H         -4.6639009501       -1.4929511536       -0.8367607942
 H         -2.5890041042        3.5414084910        0.2408320599
 H         -4.3149535075        3.8363565234        0.0004263565
 H         -4.9071695449        1.6981077484        0.9274587999
 H         -3.7167586879        2.4286204737        2.0188372199
 O         -1.8444977374        0.9051895621        1.6145376331
 C         -0.9024629803       -0.1085504570        1.6126708283
 O          0.0864795546        0.1103389382        2.3399617609
 H          2.0952180635       -0.7376796394        0.5460110035
 C          1.8354834752       -1.2211163869       -0.3843680412
 C          0.7700076596       -2.1123918400       -0.4153714070
 C          0.4485526820       -2.7338390473       -1.6164110481
 C          1.1783647230       -2.4572192109       -2.7589549304
 C          2.2310382399       -1.5603614260       -2.7296020136
 C          2.5620874650       -0.9363709134       -1.5306005258
 N          3.6248515662       -0.0314923177       -1.4762653986
 S          3.9690513257        0.9392588428       -0.1778155199
 O          4.9582844255        1.8637166157       -0.6933096396
 O          4.3929707552        0.1408824870        0.9463050044
 C          2.4941145599        1.8524644518        0.2375643120
 C          2.3355287571        2.2450089100        1.5504705351
 C          1.2386778390        3.0157359629        1.8957309225
 C          0.3210857584        3.3782552069        0.9242994960
 C          0.4884615615        2.9706906905       -0.3895096565
 C          1.5876238311        2.2041337012       -0.7417369548
 H          1.7348769219        1.8741907659       -1.7576368572
 H         -0.2354213024        3.2445095593       -1.1412724754
 H         -0.5335228289        3.9764367171        1.1996866185
 H          1.0978355579        3.3183551771        2.9207094571
 H          3.0623315892        1.9254751479        2.2800855599
 H          4.0164671876        0.2791925634       -2.3506069315
 H          2.7952605473       -1.3426750811       -3.6232679032
 H          0.9197295395       -2.9424044166       -3.6879715261
 H         -0.3903475143       -3.4088034217       -1.6575884876
 C         -0.0393193519       -2.2987087038        0.8447013404
 H          0.6088233661       -2.0470606045        1.6953012213
 C         -0.5565323965       -3.7083365238        1.0352094172
 C          0.4128911903       -4.7877648448        1.4087378470
 C         -0.5842141091       -4.2949987150        2.4130523259
 H         -1.4078450427       -4.9392174155        2.6821940185
 H         -0.2272263078       -3.6804953262        3.2271233553
 H          0.2765896279       -5.7724951044        0.9888568723
 H          1.4468826997       -4.5048864944        1.5405893063
 H         -1.3723675848       -3.9673284384        0.3739498193
 O         -2.5464281608       -2.3675536060       -0.7035704030
