  62
        -98.93400070
 C          2.4000078504        0.7670263400        0.2779803300
 C          2.7347280204       -0.5762666800       -0.0090051600
 C          4.1380841604       -0.9620699600        0.2298392000
 C          4.9954187404       -0.0468560600        0.7145379001
 C          6.4650013404       -0.2196908500        0.9824158901
 C          7.2949064204        0.2377511300       -0.2289619499
 C          7.5277754205       -0.8357365100       -1.2913324999
 H          8.0053760705       -0.3496551600       -2.1451447099
 H          8.2281716205       -1.5782011000       -0.9032000799
 C          6.2691869205       -1.5589537900       -1.7782451899
 H          5.4643442505       -0.8371414100       -1.9292066599
 H          6.4926763605       -2.0007107600       -2.7513351399
 C          5.8035649505       -2.6694557700       -0.8245417099
 H          5.6579093305       -3.5924600500       -1.3894597999
 H          6.5936396905       -2.8712068000       -0.1014592299
 C          4.4858808605       -2.3914497600       -0.0848512000
 H          3.6459018605       -2.7521527400       -0.6869066300
 H          4.4703791804       -2.9675455800        0.8462951500
 H          6.7875272704        1.0960012200       -0.6769592099
 H          8.2693073504        0.5820770300        0.1233416401
 H          6.7041902304        0.4247803000        1.8308670101
 H          6.6900586804       -1.2480960100        1.2483305401
 O          4.6249490104        1.2347367400        0.9902008901
 C          3.3332416804        1.6754082000        0.7753630100
 O          3.1392840704        2.8732873300        1.0677176300
 O          1.9055914205       -1.4164409901       -0.4477599700
 C          0.9864752604        1.2634663099        0.0453638400
 C         -0.0133130996        0.4647163499        0.8470443700
 C          0.2875486904        0.1050498599        2.1583235800
 C         -0.6223336296       -0.5954450501        2.9260471499
 C         -1.8640607596       -0.9293176701        2.4145530899
 C         -2.1782539096       -0.5679514601        1.1106867799
 C         -1.2529453796        0.1167060999        0.3343302299
 H         -1.5265328396        0.3809767599       -0.6735443701
 N         -3.4260665596       -0.8913993301        0.5539070199
 S         -4.1442784796        0.2391290499       -0.4765149701
 O         -3.6763469195        0.0098549299       -1.8201658201
 O         -3.9579530196        1.5728926899        0.0478432899
 C         -5.8585189096       -0.2379015401       -0.3462301602
 C         -6.3301075095       -1.2678312701       -1.1381730302
 C         -7.6551381395       -1.6547324301       -1.0144637102
 C         -8.4817271396       -1.0100907101       -0.1061382602
 C         -7.9947572096        0.0228510299        0.6807434698
 C         -6.6704911196        0.4142851599        0.5627562898
 H         -6.2511723696        1.2184659699        1.1458778598
 H         -8.6404965596        0.5245004999        1.3833659898
 H         -9.5128453596       -1.3124063401       -0.0130921102
 H         -8.0382929395       -2.4551956201       -1.6265538902
 H         -5.6535136995       -1.7328698301       -1.8361249202
 H         -4.0806802296       -1.2502250801        1.2353974699
 H         -2.5789759496       -1.4682629601        3.0175508899
 H         -0.3677791696       -0.8734656201        3.9379124199
 H          1.2503207604        0.3811992999        2.5674580700
 H          0.9615098704        2.2984573799        0.4205281800
 C          0.6801262605        1.2810628799       -1.4385213300
 C         -0.2675019795        2.2930767399       -2.0062678600
 C          1.2017359905        2.4069634099       -2.2778596000
 H          1.5620126605        2.1868408599       -3.2715131400
 H          1.7561935004        3.1845901599       -1.7723375200
 H         -0.9232459495        1.9900541999       -2.8094262001
 H         -0.7173705996        2.9970469699       -1.3216138201
 H          0.6837390005        0.2877459199       -1.8738558900
