  62
        -98.93925122
 C         -2.4376207904       -1.2259223089        0.0048471002
 C         -3.2580877303       -0.5639361087        0.9456194801
 C         -3.9803482802        0.6260144213        0.4634657799
 C         -3.8185104801        1.0136252911       -0.8137792602
 C         -4.4056960200        2.2280215811       -1.4781973604
 C         -3.4221358399        3.4090937010       -1.4131984006
 C         -3.5153765798        4.2576989012       -0.1452761107
 H         -2.6828236597        4.9649590511       -0.1671953608
 H         -4.4397416697        4.8384682213       -0.1702082008
 C         -3.4639837899        3.4789345014        1.1720336294
 H         -2.6918660299        2.7090014713        1.1132871196
 H         -3.1655236798        4.1741434415        1.9592840093
 C         -4.8104479799        2.8451536616        1.5528447195
 H         -5.5924950599        3.2724277816        0.9255971895
 H         -5.0566053799        3.1143452218        2.5819371095
 C         -4.8630133401        1.3115408616        1.4706451198
 H         -4.5648477602        0.8851410817        2.4336343898
 H         -5.8978349601        0.9990960117        1.2969585498
 H         -3.6008207498        4.0621349609       -2.2698457507
 H         -2.4091638499        3.0092516308       -1.5162575105
 H         -5.3614399900        2.4874666412       -1.0326356504
 H         -4.5634363700        1.9649955509       -2.5261176103
 O         -3.0153357002        0.3473561309       -1.6889264201
 C         -2.3027989403       -0.7781254091       -1.3092604999
 O         -1.6045196604       -1.2761010994       -2.2120765798
 O         -3.3713437704       -0.9414250185        2.1440700401
 C         -1.6496579105       -2.4465596289        0.4422633604
 C         -0.1709668205       -2.2152365591        0.2453583304
 C          0.6883385094       -3.1758563293       -0.2717277595
 C          2.0342842495       -2.8970395895       -0.4367861895
 C          2.5536106496       -1.6638599395       -0.0891812897
 C          1.7043054597       -0.6964166993        0.4316732001
 C          0.3592833397       -0.9821942191        0.6043476202
 H         -0.2995983203       -0.2240890190        1.0113324300
 N          2.2205151398        0.5605269207        0.7958729799
 S          3.1419782899        1.3927280504       -0.3381167802
 O          2.9749296001        2.7907484905       -0.0032437704
 O          2.8038345099        1.0078410402       -1.6883328101
 C          4.8105887199        0.9017061503        0.0431989199
 C          5.2928637199        1.1711271605        1.3091184199
 C          6.5875297598        0.7930157404        1.6264869099
 C          7.3743003898        0.1573868501        0.6773485200
 C          6.8770089298       -0.1019463000       -0.5906140599
 C          5.5822475798        0.2735136001       -0.9143873700
 H          5.1516734398        0.0903395900       -1.8862402000
 H          7.4904079597       -0.5948462202       -1.3276725798
 H          8.3814272897       -0.1369259199        0.9270724001
 H          6.9780368199        0.9943379205        2.6109685399
 H          4.6503443499        1.6718162106        2.0139631298
 H          1.5291209799        1.1756421008        1.2005849698
 H          3.5988837796       -1.4397410496       -0.2248977997
 H          2.6882970094       -3.6519436196       -0.8457137494
 H          0.3023910593       -4.1409936293       -0.5557055893
 H         -1.8401081405       -2.5468581087        1.5216258704
 C         -2.1660658006       -3.6855739490       -0.2591609994
 C         -2.1062524608       -5.0214874289        0.4176963508
 C         -3.4228236507       -4.3277822188        0.2445023907
 H         -4.1254834507       -4.7200859988       -0.4752046093
 H         -3.8892483607       -3.8864627286        1.1132889506
 H         -1.9070522809       -5.8954120390       -0.1839932591
 H         -1.6826640008       -5.0610011588        1.4097481808
 H         -2.0201241906       -3.6443591192       -1.3329138094
