  62
        -98.93471596
 C          2.8190721795        0.0328389287        0.1324203424
 C          2.0755414394        0.8267455343        1.0382052564
 C          1.7602684547        2.1919210656        0.5935239334
 C          2.1627837789        2.6152737311       -0.6164199703
 C          1.8828185762        3.9581445537       -1.2341455330
 C          0.3972814708        4.2298518808       -1.5455329205
 C         -0.3411288411        5.0169175979       -0.4554800625
 H          0.3876644551        5.5831943548        0.1258676389
 H         -0.9964061835        5.7474817177       -0.9342566245
 C         -1.2161437839        4.1877849264        0.4891270265
 H         -1.4860718842        4.8256171320        1.3340423403
 H         -2.1384669139        3.9176628627       -0.0308320672
 C         -0.5986660700        2.8929404619        1.0236059395
 H         -0.6586407482        2.1113866597        0.2600440159
 H         -1.2068896944        2.5513064716        1.8649424901
 C          0.8690835073        3.0128411272        1.4801444475
 H          1.1884305480        4.0533970391        1.4889933695
 H          0.9744023468        2.6091798249        2.4893148380
 H          0.3645798164        4.8092159832       -2.4696919453
 H         -0.1087002671        3.2829477319       -1.7399145274
 H          2.2710200754        4.7423672564       -0.5807683347
 H          2.4555248972        3.9808215237       -2.1632928753
 O          2.9106576685        1.8374864485       -1.4451250964
 C          3.2258646941        0.5344828235       -1.1084885888
 O          3.8782968547       -0.0733642215       -1.9816159693
 H          0.5656140184       -1.2178664399        1.1795253860
 C          0.6622888296       -1.9445433844        0.3864342751
 C          1.9186383948       -2.2294648315       -0.1290571914
 C          2.0165613456       -3.1682037874       -1.1483435695
 C          0.8826913301       -3.7844185631       -1.6512864734
 C         -0.3722337213       -3.4605478956       -1.1659612836
 C         -0.4753639115       -2.5301917796       -0.1416137577
 N         -1.7604657794       -2.1228341463        0.3118462398
 S         -2.4358860414       -1.0340420270       -0.8020314844
 O         -2.7434158506       -1.7696061529       -2.0026713400
 O         -1.5752443908        0.1185518803       -0.9683380915
 C         -3.9432816648       -0.5717526619        0.0289742989
 C         -4.0143727828        0.6402528049        0.6874644353
 C         -5.1822985764        0.9714290148        1.3568388164
 C         -6.2501543529        0.0869744052        1.3594972615
 C         -6.1621658066       -1.1276684983        0.6952212038
 C         -4.9984261706       -1.4639260077        0.0226136432
 H         -4.8860378558       -2.3912128199       -0.5137977733
 H         -6.9953110807       -1.8117384743        0.6991973300
 H         -7.1572440785        0.3470945898        1.8817977497
 H         -5.2523774353        1.9157396639        1.8723492542
 H         -3.1603973250        1.2983726760        0.6557490603
 H         -1.6726611115       -1.6267655549        1.1920441754
 H         -1.2670940642       -3.8905103112       -1.5850531533
 H          0.9755160668       -4.5067705290       -2.4481889827
 H          2.9859253975       -3.3899400550       -1.5705943187
 C          3.1180597916       -1.4450040144        0.3506030156
 H          3.9627116167       -1.6851597214       -0.3090327016
 C          3.4969626381       -1.8092209850        1.7708924742
 C          4.2707345743       -3.0693330839        2.0115191478
 C          4.9339057541       -1.7369754503        2.1871673035
 H          5.1623718075       -1.3985038690        3.1863869600
 H          5.6535508149       -1.4231441118        1.4448633863
 H          4.0439113400       -3.6509918391        2.8915901422
 H          4.5441237873       -3.6611305765        1.1510526899
 H          2.7533619226       -1.5249224356        2.5028326749
 O          1.6641075553        0.4379613824        2.1657499107
