  62
        -98.94581304
 C         -1.1564424826       -1.6658206212        0.0537915642
 C         -2.3193405775       -1.2685647098        0.7593124305
 C         -3.1087595167       -0.1861413359        0.1577764848
 C         -2.6876531794        0.3718806057       -0.9912793982
 C         -3.3836389071        1.4957519858       -1.7035434541
 C         -2.8625462328        2.8691460815       -1.2571941936
 C         -2.7734541415        3.0397964230        0.2596983743
 H         -2.0148649252        2.3634862868        0.6645458120
 H         -2.4180836412        4.0551913118        0.4521170775
 C         -4.0989688832        2.8151055817        1.0008387454
 H         -4.2195541939        3.6057447436        1.7444602136
 H         -4.9327272372        2.8961070830        0.3019335541
 C         -4.1921141323        1.4841518350        1.7492729165
 H         -3.3011694590        1.3524831177        2.3697832179
 H         -5.0540074827        1.5309738871        2.4205831199
 C         -4.3606341520        0.2367072613        0.8725281600
 H         -5.1779281040        0.3924103955        0.1649429025
 H         -4.6274790212       -0.5969668069        1.5288728018
 H         -1.8655734086        3.0221936904       -1.6760540061
 H         -3.5217801223        3.6362936911       -1.6681187918
 H         -3.2100149526        1.3821782261       -2.7750386973
 H         -4.4528631630        1.4259207272       -1.5117040876
 O         -1.5512731320       -0.0122960561       -1.6238436318
 C         -0.7384002984       -1.0155577032       -1.1077272106
 O          0.2936398815       -1.2193430581       -1.7714850900
 O         -2.6831389857       -1.7995459450        1.8438607677
 C         -0.3057197000       -2.7669375077        0.6587158586
 C          1.1421002020       -2.3449599145        0.7009503635
 C          2.1919014554       -3.1272385890        0.2379516095
 C          3.4969263547       -2.6752912099        0.3313196922
 C          3.7819455954       -1.4367252424        0.8746375945
 C          2.7378834459       -0.6446951392        1.3385068174
 C          1.4355620017       -1.1067838953        1.2602683621
 H          0.6344708283       -0.4807029253        1.6267404120
 N          2.9822612621        0.6237287512        1.9002541871
 S          2.1000557232        1.9238227307        1.3314408954
 O          2.8436395016        3.0836936580        1.7799481052
 O          0.7340409858        1.8428848743        1.7845235156
 C          2.1715164929        1.8249628157       -0.4466343235
 C          0.9995139902        1.8624782613       -1.1688994321
 C          1.0554635239        1.7868166472       -2.5506508905
 C          2.2822926212        1.6720715762       -3.1826380581
 C          3.4551685112        1.6430620905       -2.4437786751
 C          3.4034077482        1.7221371527       -1.0624612374
 H          4.2996105489        1.7129960268       -0.4636577191
 H          4.4078158180        1.5540994810       -2.9407256775
 H          2.3232472537        1.6019760328       -4.2581644538
 H          0.1409113614        1.7965180051       -3.1216991490
 H          0.0664648760        1.9365815676       -0.6336030237
 H          3.9611131357        0.8649875946        1.9647836149
 H          4.7996766291       -1.0833656483        0.9417816985
 H          4.3025771362       -3.2935388774       -0.0340997079
 H          1.9900286458       -4.0853850494       -0.2112473979
 H         -0.6591014382       -2.8378522511        1.7021269703
 C         -0.5223586596       -4.1397809676        0.0380892941
 C         -1.7787811374       -4.4644115578       -0.7120613589
 C         -0.4755518153       -4.3625145844       -1.4430389515
 H         -0.0243673131       -5.2727480221       -1.8102299116
 H         -0.3012745478       -3.5019149470       -2.0689670458
 H         -2.2195588678       -5.4403395253       -0.5730826531
 H         -2.5033173650       -3.6736728786       -0.8437238963
 H         -0.1242801601       -4.9339453983        0.6623901911
