  62
        -98.93954057
 C          2.6269345446        1.2619982979        0.0509495697
 C          2.7471388254        0.2480867409       -0.9295589662
 C          4.0948221784       -0.3122253229       -1.1054814005
 C          5.1117241290        0.1692413625       -0.3675261870
 C          6.5190008953       -0.3508754296       -0.4040110647
 C          6.7279209734       -1.4563497744        0.6405334625
 C          5.6525577458       -2.5427587952        0.6144026813
 H          5.9195868581       -3.2827116428        1.3721279236
 H          4.6964923595       -2.1074899167        0.9149529028
 C          5.4856987033       -3.2389330900       -0.7435031246
 H          5.4138108901       -4.3159219075       -0.5776856095
 H          6.3681641159       -3.0642095119       -1.3600786211
 C          4.2345811551       -2.8237923692       -1.5200598977
 H          3.3564249536       -2.9080129727       -0.8742706826
 H          4.0999198985       -3.5256598482       -2.3474097302
 C          4.2585084412       -1.4111054591       -2.1172947917
 H          5.1733363105       -1.2712441503       -2.6966114119
 H          3.4039702937       -1.3231521754       -2.7945271336
 H          6.7281699176       -0.9994546915        1.6329352846
 H          7.7075924732       -1.9080083715        0.4744029810
 H          7.1973653211        0.4755473024       -0.1856614873
 H          6.7345592715       -0.7321487653       -1.4001032742
 O          4.9608701186        1.1636348208        0.5448626955
 C          3.7166165638        1.7211188150        0.7897740017
 O          3.7105357282        2.6018399472        1.6741044540
 O          1.7823408479       -0.1682367300       -1.6221308867
 C          1.2693750370        1.8797456733        0.3337768368
 C          0.2950994915        0.8004003493        0.7412553400
 C          0.6619747705       -0.0811829587        1.7550818743
 C         -0.1925881342       -1.0869945111        2.1621503414
 C         -1.4336564479       -1.2382216529        1.5684560697
 C         -1.8154174082       -0.3577743500        0.5664900659
 C         -0.9573148899        0.6609680262        0.1663224520
 H         -1.2692533771        1.3373150185       -0.6141799321
 N         -3.0670778105       -0.5110717501       -0.0548202166
 S         -4.3951124077       -0.8650821614        0.9257474647
 O         -4.4054775982        0.0052915098        2.0806262726
 O         -4.3974341843       -2.2792298691        1.2052348503
 C         -5.7393383196       -0.4627957539       -0.1724426712
 C         -6.1225681243       -1.3919388378       -1.1210895437
 C         -7.1490131705       -1.0713123282       -1.9950914693
 C         -7.7707689677        0.1655384216       -1.9070461415
 C         -7.3757778936        1.0869982133       -0.9488776255
 C         -6.3488374443        0.7735002263       -0.0723896675
 H         -6.0144537400        1.4552244352        0.6932132598
 H         -7.8631770892        2.0463035942       -0.8812109170
 H         -8.5701928936        0.4120132734       -2.5878483839
 H         -7.4609097568       -1.7855213532       -2.7400135209
 H         -5.6167188311       -2.3429486477       -1.1466232185
 H         -3.2723607057        0.2449595875       -0.6936193939
 H         -2.1096637391       -2.0205620377        1.8739396883
 H          0.1091191085       -1.7639430483        2.9478955369
 H          1.6329795187        0.0330958447        2.2191390177
 H          1.4126692889        2.5493637553        1.1945708028
 C          0.8145423586        2.7032261104       -0.8529736948
 C         -0.1113548145        3.8649748426       -0.6554832302
 C          1.3280309555        4.1029960186       -0.9978690312
 H          1.5718742826        4.4632984231       -1.9859589531
 H          1.9872095487        4.4704554091       -0.2247266533
 H         -0.8547892819        4.0680086075       -1.4117257684
 H         -0.4347583614        4.0808990454        0.3517385412
 H          0.7140947982        2.1116021348       -1.7557326201
