  62
        -98.94294288
 C         -1.9922003215       -1.0442242393        0.3879000974
 C         -2.5968599442        0.0002800297        1.1357863803
 C         -4.0202188082        0.2447080563        0.8822328796
 C         -4.6795246991       -0.5248685434       -0.0023062060
 C         -6.1396521659       -0.4248075861       -0.3512594070
 C         -6.4573978461        0.6380723773       -1.4118109619
 C         -6.3565497511        2.0862858049       -0.9313093393
 H         -6.8142116953        2.7120722154       -1.7000485821
 H         -6.9442045312        2.2077947531       -0.0208498190
 C         -4.9213028739        2.5742389742       -0.6884914396
 H         -4.2175303607        1.9015212844       -1.1844055964
 H         -4.7904365176        3.5608613111       -1.1387152481
 C         -4.5328218894        2.6952946276        0.7852397696
 H         -5.1415843422        3.4662533064        1.2631443167
 H         -3.4873597424        3.0106717694        0.8393956408
 C         -4.6765900252        1.3940450148        1.5853658205
 H         -4.1747047907        1.5259995701        2.5472199430
 H         -5.7294560836        1.1782549810        1.7668348827
 H         -5.7917826108        0.4903969290       -2.2652889027
 H         -7.4800413113        0.4618369604       -1.7530618659
 H         -6.4326507822       -1.4010406285       -0.7434166147
 H         -6.7183552745       -0.2245273719        0.5509421356
 O         -4.0726660494       -1.5289939737       -0.6840981460
 C         -2.7200240829       -1.8034850215       -0.5293204461
 O         -2.3219357412       -2.7359761105       -1.2533796997
 H          1.1572261543        0.8098953367        0.9110845394
 C          1.1441081361        0.4296903162       -0.0996012714
 C          0.3359112510       -0.6499237248       -0.4274176325
 C          0.3241981198       -1.1020282523       -1.7437401899
 C          1.1023087752       -0.4816825508       -2.7033127554
 C          1.9189669883        0.5849173404       -2.3693291884
 C          1.9380367811        1.0450955584       -1.0587434779
 N          2.7557400826        2.1300999647       -0.6897106041
 S          3.8305993735        1.9348576187        0.5787491816
 O          3.1134319401        1.7643747204        1.8154249785
 O          4.7118645124        3.0778410760        0.4957823853
 C          4.7241185331        0.4466894863        0.1681428385
 C          5.8837864672        0.5501296188       -0.5751602231
 C          6.5403576688       -0.6082236004       -0.9580444539
 C          6.0215199756       -1.8445700441       -0.6037952895
 C          4.8547321622       -1.9316896758        0.1398884310
 C          4.1974989023       -0.7764122812        0.5320246385
 H          3.2904450637       -0.8054122990        1.1129284254
 H          4.4493356378       -2.8919546832        0.4156355757
 H          6.5296358550       -2.7463940441       -0.9068212471
 H          7.4500087631       -0.5440806774       -1.5331560632
 H          6.2536771225        1.5317140080       -0.8239640194
 H          3.2269326615        2.5665512422       -1.4698260699
 H          2.5296238523        1.0652538261       -3.1189439808
 H          1.0784041878       -0.8372382003       -3.7222123016
 H         -0.3184694016       -1.9266975581       -2.0097853196
 C         -0.5145009623       -1.2964618502        0.6403368009
 H         -0.2992605433       -0.7839701089        1.5884229438
 C         -0.1748917700       -2.7646170836        0.8039191792
 C          1.0291796120       -3.1490411096        1.6080511758
 C         -0.3456766338       -3.4066528467        2.1464163503
 H         -0.7053913881       -4.4236078086        2.1889759435
 H         -0.7010471911       -2.7846924067        2.9555503332
 H          1.6181340422       -3.9922665546        1.2821843319
 H          1.6038236379       -2.3555487260        2.0625593167
 H         -0.4156690354       -3.3645990015       -0.0633608495
 O         -1.9754101477        0.6901416010        1.9887578627
