  62
        -98.94439410
 C          1.8593700314        1.0461518535       -0.2148209335
 C          2.3879063299       -0.0985382526       -0.8583134031
 C          3.8510983419       -0.2371862902       -0.8123672242
 C          4.5859368842        0.7120914942       -0.2044316128
 C          6.0771485663        0.6686763611       -0.0405525721
 C          6.4721260713       -0.0085709728        1.2793484505
 C          5.7735030200       -1.3467726611        1.5202826376
 H          6.1514678542       -1.7454177002        2.4642181306
 H          4.7029303089       -1.1727355294        1.6502583956
 C          5.9842141512       -2.3827403072        0.4073191429
 H          6.8441048829       -2.1024006364       -0.2021697201
 H          6.2124966547       -3.3475140345        0.8652262675
 C          4.7698645452       -2.5962443869       -0.4984974218
 H          3.8834517328       -2.7850883005        0.1126678954
 H          4.9479218054       -3.4912412485       -1.1007504808
 C          4.4501490431       -1.4501413373       -1.4665859500
 H          5.3464454303       -1.1829170510       -2.0302393765
 H          3.6956454757       -1.8121672372       -2.1713727406
 H          7.5537172655       -0.1552765560        1.2816141924
 H          6.2185035806        0.6633203827        2.1025532218
 H          6.5141040110        0.1333023969       -0.8812080404
 H          6.4527593557        1.6932733190       -0.0391221693
 O          4.0421544640        1.8098580974        0.3806349289
 C          2.6699802142        1.9993409155        0.4009306594
 O          2.3005045578        3.0351581431        0.9900018086
 H         -1.8313061801       -0.1504594412       -1.1314096039
 C         -1.4380664065       -0.5203431430       -0.1996822859
 C         -0.3413266553        0.0802789506        0.3972705303
 C          0.1307542797       -0.4407180978        1.6003213815
 C         -0.4576404294       -1.5516929264        2.1704144160
 C         -1.5422272994       -2.1598119363        1.5620297385
 C         -2.0311986628       -1.6400449807        0.3708661826
 N         -3.1277386713       -2.2365073659       -0.2700272554
 S         -4.3129373968       -1.2735883756       -0.9453544352
 O         -5.4849728082       -2.1212375702       -0.9916733931
 O         -3.8747311174       -0.7377806982       -2.2086680121
 C         -4.5548441778        0.0430705261        0.2342946423
 C         -4.9501931775       -0.2926940993        1.5145270644
 C         -5.1126109279        0.7140133359        2.4516934847
 C         -4.8779557158        2.0334747712        2.0952277028
 C         -4.4891612650        2.3546404359        0.8043408967
 C         -4.3235615903        1.3508533634       -0.1369092479
 H         -4.0185084499        1.5572544272       -1.1496469946
 H         -4.3116707733        3.3817695115        0.5273095867
 H         -5.0009867661        2.8165092044        2.8267391086
 H         -5.4186411231        0.4684421443        3.4558436720
 H         -5.1350626244       -1.3266096686        1.7563957805
 H         -3.5220327421       -3.0289087626        0.2148377364
 H         -1.9972631802       -3.0355786611        1.9990018688
 H         -0.0709305330       -1.9494280217        3.0966271282
 H          0.9800540872        0.0329675844        2.0743438661
 C          0.3585305082        1.2769129161       -0.1985078127
 H          0.1900250033        2.1399336969        0.4622894370
 C         -0.1199807433        1.6301866983       -1.5913222212
 C         -1.2835243312        2.5538488600       -1.7819636781
 C          0.1040397747        3.0211600680       -2.1011736658
 H          0.3823641099        3.1525972805       -3.1361239136
 H          0.5757842032        3.7235332992       -1.4291894451
 H         -1.7545606665        2.9489229609       -0.8947543171
 H         -1.9617196593        2.3621637393       -2.6005136946
 H          0.0077285661        0.8159813291       -2.2961221356
 O          1.6783870468       -0.9608742736       -1.4392737529
