  62
        -98.93688551
 C         -1.9843564145       -0.8969277231       -0.0333579308
 C         -2.2758542533        0.0900048269        0.9345953099
 C         -2.4492106553        1.4644013727        0.4393026430
 C         -2.3027028363        1.7135234457       -0.8733821200
 C         -2.3684315602        3.0391068781       -1.5907070113
 C         -3.4761610583        4.0185022921       -1.1797172790
 C         -4.7926727979        3.3610182296       -0.7405934154
 H         -5.6173649813        3.8157961487       -1.2922278255
 H         -4.7794799519        2.2984664875       -0.9888294760
 C         -5.0762664524        3.5319567307        0.7536108042
 H         -6.1448674125        3.3855709204        0.9275717738
 H         -4.8348579031        4.5575000767        1.0409906262
 C         -4.3322727860        2.5670800584        1.6759613720
 H         -4.7289043934        1.5556530387        1.5528897171
 H         -4.5308753128        2.8657652901        2.7080538017
 C         -2.8101360923        2.4957800203        1.4696752829
 H         -2.3969126665        3.4711418218        1.2232212828
 H         -2.3565954772        2.1555774522        2.4051531878
 H         -3.6601881695        4.6634246861       -2.0406111095
 H         -3.1146800603        4.6609953472       -0.3780918746
 H         -2.4789320557        2.7831988406       -2.6473155579
 H         -1.3945297406        3.5253984733       -1.4786187440
 O         -2.0218415936        0.7301678955       -1.7745306687
 C         -1.8382662551       -0.5853523720       -1.3839039264
 O         -1.5656288675       -1.3657153901       -2.3167490573
 O         -2.3745226497       -0.1646096215        2.1674220348
 C         -1.7303958176       -2.3219482848        0.4164390153
 C         -0.3256177096       -2.7481479794        0.0602922750
 C          0.0024032186       -4.0552973374       -0.2772295247
 C          1.3116189778       -4.3934341765       -0.5748325498
 C          2.3148109872       -3.4431766675       -0.5507359050
 C          1.9956972472       -2.1294813286       -0.2199277108
 C          0.6900113290       -1.8015729852        0.1022168386
 H          0.4583216599       -0.7827725663        0.3775067388
 N          2.9822293663       -1.1309303185       -0.2492763167
 S          2.7225151301        0.3836851279        0.4271114511
 O          2.4239766888        0.2697007191        1.8390250706
 O          1.7656050463        1.1030701674       -0.3768834098
 C          4.3455280114        1.0882545492        0.2068973045
 C          5.2369728364        1.0927869047        1.2629503707
 C          6.5044257415        1.6195050448        1.0687590695
 C          6.8578960694        2.1279238365       -0.1719465134
 C          5.9520327449        2.1179587950       -1.2224082950
 C          4.6831447033        1.5936221472       -1.0344376121
 H          3.9420275285        1.5723285402       -1.8166829022
 H          6.2285844639        2.5167363433       -2.1850568269
 H          7.8444558590        2.5373470415       -0.3209644686
 H          7.2092629743        1.6317850979        1.8843242849
 H          4.9135993073        0.6956245721        2.2116156395
 H          3.9207194309       -1.4727060211       -0.1011531866
 H          3.3320439752       -3.7064645946       -0.7954624727
 H          1.5529797846       -5.4132522909       -0.8334631170
 H         -0.7678732859       -4.8085184577       -0.3092009102
 H         -1.8106841341       -2.3010038474        1.5149109617
 C         -2.7918428273       -3.2539792316       -0.1328441983
 C         -3.2566200485       -4.4358260676        0.6632512648
 C         -4.1524547975       -3.2468855931        0.4952623627
 H         -5.0171862808       -3.3339282698       -0.1451793269
 H         -4.3002787377       -2.5927919161        1.3425007050
 H         -3.5102715927       -5.3435810545        0.1367600324
 H         -2.8074155068       -4.5949654085        1.6320155040
 H         -2.7382575555       -3.3484456417       -1.2116682900
