  62
        -98.94044416
 C          1.6108107526        1.4715611728       -0.0491188905
 C          2.5746998038        0.9636336450        0.8495071416
 C          3.2379347404       -0.2924087604        0.4570741769
 C          2.8832864062       -0.8835264694       -0.6975490038
 C          3.3973360985       -2.1826478026       -1.2538829671
 C          2.4900167947       -3.3506928346       -0.8325805227
 C          2.8425207412       -3.9915679269        0.5088355520
 H          2.0550983095       -4.7114125696        0.7433067439
 H          3.7763779537       -4.5487750450        0.4094637769
 C          2.9785446237       -3.0156967087        1.6802096618
 H          2.1720499460       -2.2807780354        1.6414640225
 H          2.8550039185       -3.5813689874        2.6058648310
 C          4.3369965976       -2.2994862632        1.7133298615
 H          5.0182384110       -2.7951383555        1.0220418486
 H          4.7767823490       -2.4033333611        2.7075911281
 C          4.2923606095       -0.7956800829        1.4053116830
 H          4.1174638473       -0.2406432442        2.3327106768
 H          5.2732471061       -0.4787156131        1.0349024728
 H          1.4635364420       -2.9784140462       -0.8015135821
 H          2.5382083346       -4.1260250887       -1.5994682932
 H          3.3627921105       -2.0892158739       -2.3410569835
 H          4.4263406308       -2.3513041585       -0.9505793368
 O          1.9277790067       -0.3729838273       -1.5220837683
 C          1.2752913878        0.8129363401       -1.2323742897
 O          0.4399283131        1.1658380405       -2.0831854319
 H         -0.3961536393        0.7810399553        1.4782587799
 C         -1.0902487932        1.4467988824        0.9794230933
 C         -0.5937220583        2.5541099689        0.3011579692
 C         -1.4963054894        3.4020278107       -0.3262483467
 C         -2.8547553796        3.1352441099       -0.2871853580
 C         -3.3433022407        2.0278334617        0.3804760741
 C         -2.4489624263        1.1755864114        1.0175271965
 N         -2.9340775656        0.0451376931        1.7084336825
 S         -3.7705248454       -1.1203782337        0.8463814287
 O         -4.9339292908       -0.5147744718        0.2511529722
 O         -4.0149255535       -2.1876020878        1.7896037322
 C         -2.6580202779       -1.6887461617       -0.4267937683
 C         -2.0574027108       -2.9241068481       -0.2841386149
 C         -1.1807510291       -3.3597059769       -1.2642422035
 C         -0.9063349966       -2.5476464169       -2.3548721877
 C         -1.5111844387       -1.3068990017       -2.4798196546
 C         -2.4006511123       -0.8721047479       -1.5100474273
 H         -2.8878307274        0.0863882891       -1.5846353156
 H         -1.2801604256       -0.6643594496       -3.3135846348
 H         -0.2132996049       -2.8799928063       -3.1118383621
 H         -0.7134627252       -4.3277254710       -1.1744893815
 H         -2.2967641300       -3.5199104350        0.5821633056
 H         -2.2290675383       -0.4074877225        2.2732468095
 H         -4.3959374813        1.7974900470        0.4025661873
 H         -3.5438451410        3.8003347810       -0.7853556951
 H         -1.1376328555        4.2699146311       -0.8544760037
 C          0.8990884317        2.7699042914        0.2829132536
 H          1.2219663305        3.0318483323        1.3016780836
 C          1.3421925959        3.8665422467       -0.6631101573
 C          1.3516983037        5.2962696679       -0.2134666538
 C          2.6437758005        4.5617201336       -0.4032638294
 H          3.2679729052        4.8206001604       -1.2453428578
 H          3.1983696520        4.2623224325        0.4741733834
 H          1.0910135694        6.0637373068       -0.9266279689
 H          1.0318995294        5.5054945959        0.7961683546
 H          1.0866152921        3.6535646795       -1.6951452985
 O          2.8637884271        1.5298889456        1.9398670498
