  62
        -98.93637650
 C         -1.5548840512       -1.4845914100       -0.1707486516
 C         -1.6337709598       -0.0807290886       -0.3184178321
 C         -2.9787226532        0.5206633406       -0.2055020798
 C         -4.0394067682       -0.2789913919        0.0041898998
 C         -5.4935230071        0.0947173608        0.1434047482
 C         -6.0357253368        1.1233132481       -0.8609819510
 C         -6.3517819090        2.4800118168       -0.2296039007
 H         -7.0938835479        2.9896994461       -0.8480642903
 H         -6.8045949853        2.3111584794        0.7496178566
 C         -5.1553943772        3.4179138208       -0.0776624906
 H         -4.8597101284        3.7890547784       -1.0613711482
 H         -5.4826724163        4.2795825833        0.5089953418
 C         -3.9246237800        2.8066026670        0.5957427151
 H         -4.2193858988        2.1766917888        1.4343405560
 H         -3.3288808947        3.6239917763        1.0085134423
 C         -3.0238405663        2.0161442058       -0.3648607666
 H         -3.2852438823        2.2533511268       -1.4005153118
 H         -1.9850093957        2.3376527288       -0.2362649337
 H         -5.3324215161        1.2437849348       -1.6834515588
 H         -6.9600781528        0.7239508465       -1.2812943593
 H         -6.0383535332       -0.8466264332        0.0419811407
 H         -5.6662753203        0.4453875019        1.1638698277
 O         -3.9131024399       -1.6297485299        0.1473693947
 C         -2.6858585480       -2.2605192231        0.0831799873
 O         -2.7309573707       -3.4948311927        0.2591388114
 H          2.1101967095       -0.7305140099       -0.1008096246
 C          1.7520716959       -1.0384244345        0.8648667644
 C          0.6013087512       -1.8017228882        0.9670678517
 C          0.1707487519       -2.1958501552        2.2320973985
 C          0.8781991930       -1.8337566194        3.3615730850
 C          2.0176489754       -1.0534050769        3.2551433346
 C          2.4505778866       -0.6480588284        2.0000438618
 N          3.6081400217        0.1374018747        1.8437524125
 S          3.4535728481        1.6006034644        1.0219344871
 O          4.6274148289        2.3519805235        1.4196641864
 O          2.1831668235        2.2267934362        1.3025177520
 C          3.6050773893        1.1788089933       -0.6998726656
 C          4.8326439939        0.7291504063       -1.1459043513
 C          4.9770635096        0.3927145643       -2.4820025421
 C          3.8977984783        0.5154538368       -3.3445493341
 C          2.6742379133        0.9736135159       -2.8804832010
 C          2.5201344090        1.3105799126       -1.5441056182
 H          1.5736887122        1.6380071101       -1.1416573756
 H          1.8323163881        1.0648453383       -3.5487988794
 H          4.0084915678        0.2513766390       -4.3846947862
 H          5.9264134333        0.0349973218       -2.8466598030
 H          5.6457238917        0.6574090057       -0.4430034805
 H          4.1170836414        0.2874488737        2.7042454714
 H          2.5646905640       -0.7583495954        4.1383336359
 H          0.5367120100       -2.1519827031        4.3353439501
 H         -0.7290564039       -2.7908694534        2.3136462538
 C         -0.2173906032       -2.2047789304       -0.2359214975
 H         -0.4496727758       -3.2748284986       -0.1409601828
 C          0.4786288726       -1.9671243483       -1.5589066570
 C          1.6042652239       -2.8632789311       -1.9772813476
 C          0.2829440845       -2.9406264573       -2.6799847085
 H          0.2093703633       -2.5578035526       -3.6866053880
 H         -0.3475224079       -3.7978470270       -2.4928568199
 H          2.4414026359       -2.4258204879       -2.4999483297
 H          1.8716644901       -3.6701388734       -1.3119682373
 H          0.5440373489       -0.9182707494       -1.8190531590
 O         -0.6349940786        0.6513070954       -0.5439877744
