  62
        -98.93378400
 C          1.9714136798        0.8968264406       -0.2837653712
 C          2.9373953099        0.6238417809        0.7164726688
 C          3.5794269301       -0.7029847190        0.7052811291
 C          3.1978378001       -1.5908371693       -0.2310481107
 C          3.7287859002       -2.9801908493       -0.4638671703
 C          5.0992491101       -2.9800373593       -1.1629782005
 C          6.0856710101       -1.9333705991       -0.6501631608
 H          6.9575242700       -1.9483354892       -1.3095512509
 H          5.6328098100       -0.9437687092       -0.7350577211
 C          6.5783509202       -2.1463792987        0.7791290592
 H          7.3151004402       -1.3666766285        0.9884741889
 H          7.0879983503       -3.1105701586        0.8410712494
 C          5.5078060803       -2.0953698385        1.8702738193
 H          6.0263031604       -2.0474812382        2.8323807292
 H          4.9195286904       -3.0088205886        1.8813935496
 C          4.5912278602       -0.8768630686        1.8125190790
 H          4.0187202703       -0.8269020584        2.7467414591
 H          5.2035378001        0.0318940715        1.8016254787
 H          5.5365882902       -3.9750589093       -1.0661599002
 H          4.9331603300       -2.7856598396       -2.2253427005
 H          3.7699308003       -3.5228837290        0.4760353598
 H          3.0075095702       -3.4870781695       -1.1088403102
 O          2.2559584300       -1.2935517596       -1.1696379507
 C          1.6188205298       -0.0646824197       -1.2312353509
 O          0.7973996597        0.0203586500       -2.1658271009
 O          3.2704232299        1.4724601912        1.5888526485
 C          1.3388062697        2.2749268705       -0.2415974315
 C          0.0849992397        2.2950135006        0.6020234386
 C         -0.1209825403        3.3109913008        1.5281679083
 C         -1.2837207902        3.3566792309        2.2757596384
 C         -2.2614939801        2.3940653708        2.1097252088
 C         -2.0601244501        1.3649091905        1.1946554290
 C         -0.8923240402        1.3220811005        0.4465096189
 H         -0.7538380902        0.5254021103       -0.2688776909
 N         -3.0220870600        0.3539148904        1.0559590894
 S         -3.1501611601       -0.5180917200       -0.3814260704
 O         -2.1495138899       -1.5552169399       -0.3811737202
 O         -3.1754627402        0.3814521397       -1.5120419006
 C         -4.7652454200       -1.2408494501       -0.1503466400
 C         -5.8698625801       -0.6097897104       -0.6909943401
 C         -7.1257369800       -1.1576618904       -0.4816829299
 C         -7.2559900198       -2.3200481302        0.2633102505
 C         -6.1384572897       -2.9434936200        0.7983000605
 C         -4.8798901698       -2.4010760899        0.5917301503
 H         -3.9818196497       -2.8539741397        0.9786117403
 H         -6.2426993796       -3.8490425899        1.3738973808
 H         -8.2340330797       -2.7446992103        0.4252981007
 H         -7.9954651801       -0.6772117306       -0.8999097499
 H         -5.7181416602        0.2860234195       -1.2714393704
 H         -3.9250643900        0.6066931304        1.4326730394
 H         -3.1709609101        2.4271477508        2.6897393989
 H         -1.4321461502        4.1508388111        2.9913612582
 H          0.6431631997        4.0611285709        1.6665082681
 H          2.0800933496        2.9182251207        0.2540864583
 C          1.0316931695        2.8616439301       -1.6057639416
 C          1.0284858893        4.3496738101       -1.7806150720
 C          2.1245815793        3.5258487600       -2.3856239019
 H          2.1453702793        3.3895536798       -3.4562525719
 H          3.1041313194        3.5679714103       -1.9317828920
 H          0.2910483192        4.7860144398       -2.4365047121
 H          1.2699334993        4.9573476903       -0.9219683722
 H          0.3010050595        2.2867859899       -2.1612512514
