  62
        -98.94059204
 C         -2.2675643093       -1.0050412331       -0.3155004195
 C         -3.5991186529       -1.1555011688        0.1440141233
 C         -4.5652334606       -0.1719597046       -0.3561111652
 C         -4.1610945478        0.7823675946       -1.2140645873
 C         -5.0299048764        1.8474524807       -1.8263816671
 C         -5.2195489149        3.0825536800       -0.9350122590
 C         -6.1301353900        2.8759491714        0.2760510443
 H         -7.0763011587        2.4448712548       -0.0523787877
 H         -6.3465589797        3.8645278054        0.6857598596
 C         -5.5223965744        2.0049591024        1.3844855811
 H         -5.6886435487        2.4808838429        2.3535283225
 H         -4.4409086081        1.9377347212        1.2432496382
 C         -6.1001185119        0.5920281354        1.4691237129
 H         -7.1571452002        0.6441400340        1.7388112680
 H         -5.5757510160        0.0549797193        2.2635184492
 C         -5.9653579352       -0.2248113427        0.1770547535
 H         -6.6712831933        0.1345290453       -0.5710592120
 H         -6.1951789663       -1.2683437119        0.4050134498
 H         -5.6505156121        3.8703234875       -1.5572019496
 H         -4.2372140179        3.4240704787       -0.5998926260
 H         -6.0030372191        1.4266432515       -2.0803743270
 H         -4.5338554114        2.1603947395       -2.7476369245
 O         -2.8762587709        0.8808494313       -1.6490247582
 C         -1.8927512128        0.0139042316       -1.1911940768
 O         -0.7560559903        0.2519778364       -1.6433372488
 O         -3.9611887357       -2.0663396448        0.9356448191
 C         -1.2079873379       -1.9613231597        0.2057798814
 C         -0.2383765493       -1.1803902521        1.0581506681
 C         -0.7097889479       -0.6182254291        2.2430544446
 C          0.1195733064        0.1418649123        3.0430337959
 C          1.4345102504        0.3642122407        2.6722573758
 C          1.9173108212       -0.1967108369        1.4963588089
 C          1.0842666806       -0.9733371764        0.7008929457
 H          1.4774504590       -1.3853034404       -0.2123729242
 N          3.2656436816       -0.0160817236        1.1290827194
 S          3.6419969874        0.3828909117       -0.4705877404
 O          2.9719725394        1.6066502689       -0.8516131159
 O          3.4343728262       -0.7685991822       -1.3095502940
 C          5.3927792724        0.6820912485       -0.2946021796
 C          6.2438973525       -0.4040447153       -0.2192331777
 C          7.6018833986       -0.1812708750       -0.0566114927
 C          8.0841686390        1.1165571567        0.0277781573
 C          7.2183606333        2.1967546528       -0.0509817288
 C          5.8587085830        1.9803833907       -0.2124409224
 H          5.1487636572        2.7884778255       -0.2880263224
 H          7.5958276922        3.2047003274        0.0116279781
 H          9.1417269144        1.2873282473        0.1530331601
 H          8.2784004701       -1.0185300628        0.0025808129
 H          5.8240731997       -1.3930955854       -0.2985450782
 H          3.7326759591        0.6375492453        1.7456507529
 H          2.0824880477        0.9672600177        3.2906364076
 H         -0.2597580740        0.5725324421        3.9575674956
 H         -1.7420431872       -0.7827755621        2.5210000452
 H         -1.7479866149       -2.6627791367        0.8584669179
 C         -0.5579198070       -2.7426614934       -0.9141682125
 C          0.1350842276       -4.0356114898       -0.6081089877
 C         -1.1675612521       -4.0404382415       -1.3486701478
 H         -1.1641153327       -4.2834660135       -2.4006285405
 H         -2.0520698863       -4.3738601642       -0.8257334672
 H          1.0379919498       -4.2735680821       -1.1496556951
 H          0.1354769846       -4.3684978375        0.4188142508
 H         -0.1339877410       -2.1087893924       -1.6851366745
