  62
        -98.93948788
 C         -2.4659384905       -0.2262089900        0.1332705795
 C         -3.5386085006       -0.2721864507        1.0549345794
 C         -4.7864493805        0.3607772797        0.6151076399
 C         -4.8436523904        0.9548609708       -0.5910145896
 C         -6.0376341304        1.6641788413       -1.1704647591
 C         -7.0505444204        0.7314046420       -1.8487623699
 C         -7.8840696005       -0.1281316488       -0.8973649106
 H         -8.3396720005        0.5089062306       -0.1386277501
 H         -8.6940149805       -0.5635378882       -1.4859736310
 C         -7.1027879306       -1.2621125394       -0.2190274615
 H         -6.1700634606       -1.4365031890       -0.7603034117
 H         -7.6818374906       -2.1867439793       -0.2729801423
 C         -6.7797009006       -1.0152835507        1.2545331187
 H         -7.7061933506       -0.9713778211        1.8313566987
 H         -6.1930539807       -1.8604966010        1.6234145980
 C         -5.9795067305        0.2669483691        1.5177810398
 H         -6.6186918605        1.1413857992        1.3973281005
 H         -5.6149653006        0.2386985582        2.5477380498
 H         -6.5157441504        0.0859732725       -2.5492717404
 H         -7.7319362503        1.3583072825       -2.4285255094
 H         -6.5367155604        2.2393193607       -0.3899387086
 H         -5.6521975303        2.3579674719       -1.9207024885
 O         -3.7820718604        0.9963013714       -1.4399597695
 C         -2.5741944004        0.3981359011       -1.1092740900
 O         -1.6961542504        0.4931625317       -1.9874736999
 H          1.4347696294       -1.1139825398       -0.4068790412
 C          1.2319838295       -0.1426224901        0.0169716296
 C         -0.0307105405        0.1451782395        0.5111229599
 C         -0.2526983205        1.4015332991        1.0685399209
 C          0.7512039496        2.3500198090        1.1005914617
 C          2.0040806996        2.0658432793        0.5868982415
 C          2.2443022495        0.8097144598        0.0490809205
 N          3.5180524995        0.5123559701       -0.4658595397
 S          4.8459245795        1.0214921993        0.4489297107
 O          4.5925815695        0.7912275181        1.8533003905
 O          5.1624708796        2.3789137996        0.0809374719
 C          6.1183582495       -0.0798526903       -0.1385758301
 C          6.3148753894       -1.2813019709        0.5163920088
 C          7.2881442494       -2.1491541005        0.0472981581
 C          8.0426198194       -1.8040325996       -1.0641350015
 C          7.8341229795       -0.5946630791       -1.7103055105
 C          6.8627694895        0.2783224406       -1.2462755698
 H          6.6718875996        1.2318553110       -1.7103145790
 H          8.4251669796       -0.3288862784       -2.5718011303
 H          8.8002607894       -2.4808160694       -1.4264044721
 H          7.4547038293       -3.0884699510        0.5495962974
 H          5.7135119394       -1.5037134816        1.3834325586
 H          3.6052104095       -0.4560133196       -0.7423596005
 H          2.7988038197        2.7944875293        0.6071251822
 H          0.5582606597        3.3218782786        1.5304251625
 H         -1.2288017404        1.6282039388        1.4760073511
 C         -1.1470295306       -0.8709659804        0.5127486290
 H         -1.2823202106       -1.2200566013        1.5481604087
 C         -0.8786159206       -2.0703513897       -0.3732457320
 C         -0.1238402207       -3.2535598602        0.1535569070
 C         -1.5993991807       -3.3525202899       -0.0872758431
 H         -1.9502895207       -3.9441101091       -0.9194900336
 H         -2.2588370007       -3.3684277905        0.7682340568
 H          0.5375619693       -3.7835187796       -0.5155363334
 H          0.2193494193       -3.2130939610        1.1764341170
 H         -0.7427334006       -1.7936754588       -1.4129808618
 O         -3.4537767306       -0.8094112817        2.1924655089
