  62
        -98.94067547
 C         -2.5987787494       -0.6205718120       -0.4583387003
 C         -3.1177469900        0.2113005280        0.5691607093
 C         -3.1443287807        1.6529025379        0.3000676688
 C         -2.7071830709        2.1043267278       -0.8889762213
 C         -2.6387043917        3.5489197977       -1.2891651018
 C         -1.2656574820        4.1519906685       -0.9631704319
 C         -0.7873335520        3.8750708293        0.4625493783
 H         -0.5774731514        2.8071288695        0.5700506087
 H          0.1673734177        4.3911274299        0.5888165482
 C         -1.7603798423        4.3266879491        1.5608911080
 H         -1.1881666927        4.8248047997        2.3463817579
 H         -2.4612868627        5.0576772786        1.1556756377
 C         -2.5398929918        3.1941095289        2.2323562684
 H         -1.8452087214        2.4074062294        2.5401747587
 H         -3.0053363621        3.5929420590        3.1377662382
 C         -3.6507960913        2.5547061080        1.3893836685
 H         -4.2975212317        3.3330378675        0.9796156682
 H         -4.2486148710        1.9208320279        2.0506879987
 H         -0.5287193117        3.7316286487       -1.6513967016
 H         -1.3142189726        5.2299226685       -1.1296245522
 H         -2.8080548916        3.6157239672       -2.3653154618
 H         -3.4216908520        4.1001689274       -0.7721288220
 O         -2.2356200603        1.2815836777       -1.8566322610
 C         -2.1199526696       -0.0862853122       -1.6543193905
 O         -1.5875435692       -0.6796450622       -2.6156320302
 O         -3.5447720798       -0.2411620718        1.6656336495
 C         -2.5094579486       -2.1032448319       -0.1327240098
 C         -1.1672815485       -2.3943587909        0.4969420804
 C         -1.0631772483       -3.0099281504        1.7381466706
 C          0.1725451618       -3.1925544795        2.3355459108
 C          1.3269328116       -2.7480960091        1.7156541908
 C          1.2305462314       -2.1408820296        0.4723180305
 C         -0.0030010087       -1.9850782705       -0.1370633696
 H         -0.0628279989       -1.5016931308       -1.1018310598
 N          2.4045646511       -1.6062661191       -0.1316325195
 S          2.6857031202       -0.0411647288        0.4651193099
 O          2.7047029601       -0.1111082783        1.9042095100
 O          1.7464759297        0.8928419305       -0.1201595105
 C          4.3303298801        0.2758223819       -0.1444765100
 C          5.3928621604       -0.3368693972        0.4913782803
 C          6.6741658603       -0.1237640167        0.0096515603
 C          6.8701635999        0.6928585830       -1.0943492799
 C          5.7934927696        1.3002269822       -1.7220242302
 C          4.5086968997        1.0894978817       -1.2458157203
 H          3.6420958795        1.5453210010       -1.6979398305
 H          5.9478119094        1.9359123120       -2.5790002304
 H          7.8683797299        0.8588524435       -1.4673364099
 H          7.5142373205       -0.5932976961        0.4952874806
 H          5.1917310906       -0.9551098171        1.3501087805
 H          2.2727625412       -1.5101538795       -1.1321354396
 H          2.2912321116       -2.8416723984        2.1867413409
 H          0.2344907620       -3.6665789692        3.3032406110
 H         -1.9626157181       -3.3195470407        2.2498743907
 H         -3.2796038886       -2.2814022720        0.6303096102
 C         -2.7721859380       -3.0258009924       -1.3051214995
 C         -3.2198089472       -4.4302451226       -1.0363544991
 C         -4.1792451777       -3.4354660533       -1.6156336595
 H         -4.4680140476       -3.5337143138       -2.6510655095
 H         -4.9626994380       -3.0511927435       -0.9788339097
 H         -2.8483537667       -5.2177970226       -1.6735140388
 H         -3.3558401872       -4.7240728923       -0.0067476490
 H         -2.1071003380       -2.8586550223       -2.1419431695
