  62
        -98.93930241
 C          2.2911225101        0.8454400093        0.6267518602
 C          3.4413058601        0.9404107489       -0.1950700100
 C          4.5311467499        0.0002343888        0.1112468002
 C          4.3845954999       -0.8870972009        1.1106290605
 C          5.3912544097       -1.9350154810        1.4858996407
 C          5.1399927794       -3.2471919512        0.7298729211
 C          4.9548297393       -3.0670539516       -0.7768730389
 H          4.8154382791       -4.0609098817       -1.2078043286
 H          4.0339880294       -2.5073392115       -0.9576513390
 C          6.1231870694       -2.3630790620       -1.4809954392
 H          7.0112201394       -2.3973357920       -0.8489053293
 H          6.3570569692       -2.9065398623       -2.3988258891
 C          5.8412101196       -0.9137296620       -1.8805543496
 H          4.9005726496       -0.8629980420       -2.4344943596
 H          6.6369115296       -0.5860157524       -2.5547549398
 C          5.7756896399        0.0947266683       -0.7268413599
 H          6.6664797699       -0.0010178317       -0.1029970600
 H          5.7667780700        1.0976036882       -1.1632208702
 H          5.9793098993       -3.9192970613        0.9177877212
 H          4.2361749594       -3.7107441009        1.1324057213
 H          6.3909213798       -1.5640381012        1.2680332605
 H          5.3080188698       -2.1219378507        2.5578660808
 O          3.2641392599       -0.9563942805        1.8749346406
 C          2.2024546801       -0.0968270304        1.6566636905
 O          1.2473687401       -0.2605205400        2.4445633406
 H         -1.5024711098        1.0064978800        0.6997613005
 C         -1.1579314899        0.9601592297       -0.3224722896
 C          0.1562550501        1.2875784993       -0.6247227398
 C          0.5824492800        1.2034988989       -1.9460503398
 C         -0.2908129002        0.7898609688       -2.9350710796
 C         -1.5992125002        0.4595492391       -2.6299576794
 C         -2.0387864801        0.5512523095       -1.3140092494
 N         -3.3803460801        0.2771396799       -0.9954836992
 S         -3.7742756101       -0.3971851996        0.4996681611
 O         -3.6712125898        0.6223589206        1.5129347008
 O         -3.0157345403       -1.6092746097        0.7172778014
 C         -5.4925776002       -0.7799261694        0.2150209913
 C         -5.8696037505       -2.0787534894       -0.0681224783
 C         -7.2070565505       -2.3505264592       -0.3117522381
 C         -8.1386384403       -1.3242083791       -0.2714467883
 C         -7.7450851401       -0.0252261891        0.0150100013
 C         -6.4102062400        0.2529086808        0.2611933611
 H         -6.0588556998        1.2436705608        0.4974406908
 H         -8.4724900299        0.7697195611        0.0483180311
 H         -9.1784744204       -1.5384166189       -0.4614936481
 H         -7.5163367907       -3.3597361693       -0.5311927177
 H         -5.1112984906       -2.8451912996       -0.0812187181
 H         -3.8658700303       -0.1999535703       -1.7434442190
 H         -2.2783921503        0.1380232790       -3.4050168592
 H          0.0521508997        0.7214850584       -3.9565377496
 H          1.6034166300        1.4573687086       -2.1857218699
 C          1.0790284603        1.7513743795        0.4775716100
 H          0.5274900103        1.6613370899        1.4241253101
 C          1.4422252405        3.2109833294        0.2761174596
 C          0.4246962407        4.2584374797        0.6084280393
 C          1.6377230408        4.0895883397        1.4726371493
 H          2.4085458009        4.8446268995        1.4366007690
 H          1.5106804308        3.6409238500        2.4476839094
 H          0.3601355608        5.1319418795       -0.0218553109
 H         -0.5258925693        3.9245652899        0.9979965695
 H          2.0837803105        3.3804189890       -0.5781213805
 O          3.5794216201        1.7598804086       -1.1412950002
