  62
        -98.93975045
 C         -2.4619895113       -1.0501350075       -0.1743446054
 C         -3.7167499795       -1.0985931618        0.4804598703
 C         -4.8126746560       -0.3830223289       -0.1814644128
 C         -4.5850966834        0.2594728381       -1.3416347175
 C         -5.6041374945        1.0186493693       -2.1474013881
 C         -5.8223657882        2.4626110361       -1.6751669867
 C         -6.5904684539        2.6081714591       -0.3609046031
 H         -6.8602145734        3.6615655586       -0.2626744982
 H         -7.5185311756        2.0385405715       -0.4184820792
 C         -5.8003448003        2.1840990019        0.8850677076
 H         -4.7353915544        2.1400570591        0.6443229738
 H         -5.9194194948        2.9385538512        1.6661087189
 C         -6.2291569366        0.8435644167        1.4819547538
 H         -7.2550923235        0.9173822372        1.8495270968
 H         -5.5812110773        0.6257836089        2.3348833716
 C         -6.1431674880       -0.3385848406        0.5076715178
 H         -6.2523677740       -1.2629749764        1.0801132006
 H         -6.9490341869       -0.2825049978       -0.2236847444
 H         -4.8494091640        2.9512048042       -1.5845059976
 H         -6.3824575633        2.9799818679       -2.4574932564
 H         -5.2312704541        1.0449886786       -3.1735114307
 H         -6.5538541791        0.4832286307       -2.1359686705
 O         -3.3664428195        0.2753761166       -1.9431442263
 C         -2.2720885973       -0.3574237260       -1.3701446742
 O         -1.2169959434       -0.2378788203       -2.0208958685
 H          1.2624181461       -1.2764901443       -0.5130123731
 C          0.9797967199       -0.5902702403        0.2697473461
 C         -0.2625573157       -0.7038173357        0.8711433202
 C         -0.6018375185        0.2008346579        1.8745418089
 C          0.2769729355        1.1957666784        2.2560271838
 C          1.5110065034        1.3172748655        1.6404841908
 C          1.8592956676        0.4214195149        0.6395736180
 N          3.0982140776        0.5526136286       -0.0145254747
 S          4.4667239876        0.8204335106        0.9363599700
 O          4.5137209385       -0.1359373305        2.0208022566
 O          4.4959879613        2.2087690255        1.3226688951
 C          5.7611238311        0.4922934826       -0.2427281166
 C          6.1417553656        1.5004492796       -1.1077479660
 C          7.1267638458        1.2400089862       -2.0469921538
 C          7.7099960992       -0.0170536439       -2.1062456090
 C          7.3179451107       -1.0185236383       -1.2307267260
 C          6.3327105724       -0.7650466855       -0.2893751935
 H          6.0036221934       -1.5106126353        0.4167216628
 H          7.7752039203       -1.9937451847       -1.2779044890
 H          8.4769284928       -0.2168884717       -2.8378113345
 H          7.4359973595        2.0164290699       -2.7280143278
 H          5.6660044717        2.4631619477       -1.0196626748
 H          3.2580188113       -0.1984921929       -0.6720760429
 H          2.2063645484        2.0898013396        1.9264231923
 H          0.0006358805        1.8878206474        3.0377253427
 H         -1.5694574983        0.1122291904        2.3498759910
 C         -1.2771133670       -1.7470182460        0.4725098919
 H         -1.6743955475       -2.2023140885        1.3908879527
 C         -0.7298279213       -2.8424488701       -0.4166434397
 C          0.1235268843       -3.9228538495        0.1758430273
 C         -1.2712565317       -4.2322366142       -0.2762173371
 H         -1.4055104138       -4.8249481529       -1.1685921450
 H         -2.0292249250       -4.3978288042        0.4752422647
 H          0.9475056827       -4.3081577034       -0.4054088729
 H          0.3161724003       -3.8793708371        1.2372593343
 H         -0.4991806660       -2.4987306267       -1.4182896461
 O         -3.9112206091       -1.7122887987        1.5638902044
