  62
        -98.94025633
 C         -2.6198767285       -0.7922214694       -0.0992967284
 C         -2.1670833271        0.1776990177       -1.0290941856
 C         -2.6702526399        1.5445649960       -0.8197424768
 C         -3.5370531415        1.8037856614        0.1746311344
 C         -4.1730644529        3.1331973788        0.4801688606
 C         -3.3108979774        4.0586252317        1.3487584670
 C         -2.1003678431        4.6681886795        0.6412650563
 H         -2.4222515559        5.1404032432       -0.2874155600
 H         -1.7109204306        5.4549562320        1.2902973350
 C         -0.9731040967        3.6686468298        0.3473175107
 H         -1.1042464859        2.7728738305        0.9591986360
 H         -0.0116691598        4.1031330610        0.6294109306
 C         -0.8560897878        3.2450391441       -1.1168166922
 H         -0.5750670335        4.1067574605       -1.7273878516
 H         -0.0534465632        2.5056236373       -1.1863406631
 C         -2.1331228459        2.6289509870       -1.7038437880
 H         -2.8863901277        3.4016640790       -1.8610891656
 H         -1.8838800757        2.1793079140       -2.6684157151
 H         -2.9762106530        3.5016790738        2.2268415255
 H         -3.9524792432        4.8725792322        1.6940997914
 H         -4.4255936445        3.6390095852       -0.4521887711
 H         -5.0970432262        2.9158392631        1.0205115366
 O         -3.9729930887        0.8391697692        1.0281713649
 C         -3.5050772357       -0.4590372497        0.9304569827
 O         -3.9617360013       -1.2286439118        1.8011384847
 H          0.1211360173       -0.7900169535       -0.2184399722
 C          0.1875740186       -1.6204069056        0.4670278135
 C         -0.8999961092       -2.4629250474        0.6486952782
 C         -0.7805814620       -3.5304111910        1.5313939836
 C          0.4031382749       -3.7528440375        2.2110682828
 C          1.4871459395       -2.9161927943        2.0227322275
 C          1.3751806129       -1.8368915217        1.1513705913
 N          2.4494878749       -0.9486093048        0.9956992437
 S          2.6347392053       -0.0613818502       -0.4266194852
 O          1.7373828196        1.0631390577       -0.3941507139
 O          2.5619848426       -0.9367542301       -1.5745842740
 C          4.3104393493        0.5075596826       -0.2013648093
 C          5.3509217698       -0.2026191506       -0.7696838969
 C          6.6512561528        0.2300525463       -0.5617753524
 C          6.8881675175        1.3582045709        0.2091242562
 C          5.8337467201        2.0619745107        0.7719195239
 C          4.5314284995        1.6348534061        0.5668657064
 H          3.6793790505        2.1530304561        0.9753856964
 H          6.0211725134        2.9406268229        1.3677903729
 H          7.9007345279        1.6930852976        0.3696948073
 H          7.4725857171       -0.3126858328       -1.0011602814
 H          5.1175085175       -1.0675487870       -1.3696265270
 H          3.3284068498       -1.3271245165        1.3204102572
 H          2.4118027044       -3.0861731902        2.5527974228
 H          0.4834859684       -4.5862197625        2.8922453554
 H         -1.6278249197       -4.1809615001        1.6896084430
 C         -2.1868730459       -2.2483541395       -0.1146628754
 H         -2.9792059071       -2.7983521408        0.4132351631
 C         -2.0503851405       -2.8339685838       -1.5076482036
 C         -2.2759402078       -4.3008689780       -1.7108283872
 C         -3.2743580402       -3.3098037886       -2.2277839884
 H         -3.3410450255       -3.1430082516       -3.2922160041
 H         -4.2198303438       -3.2218956980       -1.7119901483
 H         -1.6523598647       -4.8212411006       -2.4214290584
 H         -2.5514791981       -4.8916907786       -0.8505407584
 H         -1.2787942996       -2.3551753776       -2.0972109452
 O         -1.3980535059       -0.0571209048       -1.9988946138
