  62
        -98.94465663
 C         -1.9377092893       -0.6393509606       -0.5369833890
 C         -3.0402185592       -1.3381283302        0.0127025717
 C         -4.3592357193       -0.7267395805       -0.1939553489
 C         -4.4479876394        0.4261270788       -0.8821820501
 C         -5.7207688594        1.1836005485       -1.1246510808
 C         -5.9712305895        2.2179532096       -0.0183908819
 C         -5.8354250395        1.6535871010        1.3957827787
 H         -6.0633807095        2.4633870116        2.0922469379
 H         -4.7949676195        1.3672421312        1.5659668490
 C         -6.7466933294        0.4537581412        1.6900605699
 H         -7.5514997494        0.4110514604        0.9553392399
 H         -7.2089752994        0.5973182921        2.6689550697
 C         -6.0261988193       -0.8951273687        1.7311878212
 H         -6.7108645492       -1.6330171383        2.1576687819
 H         -5.1617982393       -0.8279791480        2.3964556312
 C         -5.5519241492       -1.4404828900        0.3781162618
 H         -6.3813421592       -1.4348568208       -0.3319049483
 H         -5.2362608491       -2.4767710598        0.5299708128
 H         -6.9722568095        2.6318398794       -0.1530413423
 H         -5.2491760296        3.0296717895       -0.1340202427
 H         -6.5510845894        0.4819444384       -1.1756691601
 H         -5.6350045294        1.7015219176       -2.0814290813
 O         -3.3686341094        1.0644410784       -1.4014402507
 C         -2.0861607094        0.5589664887       -1.2353191902
 O         -1.1935217594        1.2566879782       -1.7522079909
 O         -2.9254524991       -2.4215138695        0.6461510327
 C         -0.5458905492       -1.2211264103       -0.3507587084
 C          0.2815703607       -0.2633124294        0.4689086106
 C         -0.0742049493       -0.0564672282        1.8005527004
 C          0.6189620706        0.8428974327        2.5857513296
 C          1.6875138005        1.5503469322        2.0617908389
 C          2.0495146406        1.3546661510        0.7346851291
 C          1.3514104506        0.4461025501       -0.0517996501
 H          1.6378463907        0.3333235491       -1.0831187999
 N          3.1096856605        2.0857707205        0.1772177583
 S          4.2527992506        1.3713409096       -0.8071452809
 O          5.2990435105        2.3636596096       -0.9189635019
 O          3.6586023106        0.9261285184       -2.0407941305
 C          4.8472053907       -0.0215255094        0.1352536204
 C          4.2357335208       -1.2509094396       -0.0051706784
 C          4.6733289009       -2.3078791888        0.7777113427
 C          5.7070809608       -2.1190324778        1.6818085125
 C          6.3118718007       -0.8776399376        1.8098880113
 C          5.8766640306        0.1838118816        1.0335254002
 H          6.3254675006        1.1621413317        1.0925262993
 H          7.1182508807       -0.7344909169        2.5109758012
 H          6.0444656409       -2.9452201772        2.2875672033
 H          4.2047661609       -3.2738375489        0.6768445936
 H          3.4381306508       -1.3628757204       -0.7205798382
 H          3.5454559404        2.7389380312        0.8114998777
 H          2.2272551805        2.2597084929        2.6706467382
 H          0.3296322406        0.9947087137        3.6146561694
 H         -0.9128153393       -0.6064594078        2.2053260310
 H         -0.6947466892       -2.1371044497        0.2390052125
 C          0.0679756408       -1.5976078316       -1.6815008880
 C          1.1308478009       -2.6524127216       -1.7388400870
 C         -0.2418134091       -2.9417770722       -2.2664260767
 H         -0.3806689491       -3.0190614633       -3.3343630566
 H         -0.8825790990       -3.5967291017       -1.6942182561
 H          1.9371025709       -2.5323773622       -2.4475250671
 H          1.4192931609       -3.1188738406       -0.8087881565
 H          0.1398076308       -0.7636644223       -2.3705627189
