  62
        -98.93660802
 C         -2.1475268999       -0.9434036505        0.1988019696
 C         -2.5434041600       -0.0038288214        1.1769021503
 C         -2.9266171003        1.3318442190        0.6890671014
 C         -2.8450007903        1.5924726101       -0.6274476883
 C         -3.2331888705        2.8615202806       -1.3344089673
 C         -4.6879577704        2.7851712307       -1.8292111874
 C         -5.7375198305        3.2388180397       -0.8153392971
 H         -5.6694908707        4.3213956996       -0.6898169862
 H         -6.7181105605        3.0191203199       -1.2434612272
 C         -5.6440218605        2.5792970286        0.5629632324
 H         -6.6152266405        2.6836756981        1.0502968725
 H         -5.4529590503        1.5109617487        0.4471213915
 C         -4.5683622406        3.2072985081        1.4613923229
 H         -4.2383023107        4.1470510885        1.0191133337
 H         -5.0066234806        3.4575591472        2.4296891031
 C         -3.3507499904        2.3158317480        1.7457876022
 H         -3.5472362904        1.7027754573        2.6311344417
 H         -2.4925532905        2.9511126080        1.9911746728
 H         -4.7870180705        3.4076791215       -2.7206918269
 H         -4.8854680103        1.7526032810       -2.1284840583
 H         -2.5720844105        2.9476966914       -2.1994905872
 H         -3.0800091306        3.7233531301       -0.6915927266
 O         -2.4266999301        0.6669345909       -1.5346372591
 C         -2.0560153499       -0.6104049494       -1.1526433901
 O         -1.6769064798       -1.3391793685       -2.0890431207
 O         -2.5721598600       -0.2679005924        2.4107657401
 C         -1.7154189896       -2.3314317008        0.6393882685
 C         -0.2582431296       -2.5187782103        0.2942871183
 C          0.2417295406       -3.6067747996       -0.4076658726
 C          1.5854116706       -3.6720636691       -0.7376925426
 C          2.4574922104       -2.6628488393       -0.3734512017
 C          1.9695477602       -1.5801701099        0.3446331991
 C          0.6278594502       -1.5195227504        0.6788124892
 H          0.2519132801       -0.6644737509        1.2290891699
 N          2.8546659101       -0.5335785801        0.7113409600
 S          3.2425215999        0.5267488810       -0.5509432791
 O          2.2926382897        1.6219807109       -0.5684348082
 O          3.3881657501       -0.2265250580       -1.7691327197
 C          4.8336467898        1.1188837808       -0.0081580986
 C          4.9306938596        2.3369621203        0.6350995024
 C          6.1710284395        2.7585902702        1.0885888528
 C          7.2856195096        1.9570625705        0.8953487021
 C          7.1719494299        0.7358763710        0.2474525611
 C          5.9350568999        0.3095580912       -0.2082907592
 H          5.7992642301       -0.6269482084       -0.7231885900
 H          8.0411483000        0.1160736213        0.0972909706
 H          8.2491000796        2.2869966004        1.2504455724
 H          6.2622836193        3.7084885298        1.5903975036
 H          4.0387568695        2.9304285201        0.7567531629
 H          2.4602090500        0.0308241292        1.4538182505
 H          3.4983555804       -2.6914789889       -0.6495801317
 H          1.9554206308       -4.5191368486       -1.2951032933
 H         -0.4238679193       -4.3972800695       -0.7134147932
 H         -1.8139064797       -2.3355931317        1.7351431984
 C         -2.6247815395       -3.3935996305        0.0614108476
 C         -2.8037209692       -4.6993299911        0.7751311165
 C         -3.9171393594       -3.6970300412        0.7564542073
 H         -4.7893959994       -3.9026938609        0.1544824871
 H         -4.1320284595       -3.1515107420        1.6637779677
 H         -2.9143700491       -5.5974163106        0.1866420358
 H         -2.2651290192       -4.8402429317        1.6998427364
 H         -2.6271703994       -3.3941496596       -1.0227168624
