  62
        -98.93806762
 C          1.6324363688        1.0327895201        0.1315910893
 C          2.7270915588        0.7767174101        0.9900920993
 C          3.5204742790       -0.4254094098        0.6921218092
 C          3.1534449991       -1.2143017096       -0.3342600909
 C          3.9034607292       -2.4246497795       -0.8133830611
 C          5.1306667192       -1.9879435993       -1.6389922010
 C          6.4764492692       -2.3460258092       -1.0080990910
 H          6.6601901393       -3.4137649692       -1.1451850411
 H          7.2494122992       -1.8056610891       -1.5587334408
 C          6.6191380391       -2.0351132394        0.4850226391
 H          6.1305460292       -2.8151123196        1.0711269690
 H          7.6839945991       -2.0909769794        0.7208371691
 C          6.0851841990       -0.6711814895        0.9413936193
 H          6.0744056289        0.0354410406        0.1111628894
 H          6.7719787589       -0.2711262196        1.6901239194
 C          4.6898110289       -0.7145464098        1.5920884292
 H          4.5452934390       -1.6817948899        2.0820579991
 H          4.6423334688        0.0555236501        2.3680319293
 H          5.0850677193       -2.4458826591       -2.6281743210
 H          5.0746479291       -0.9078310093       -1.7899225408
 H          4.2094983992       -3.0296124796        0.0373841689
 H          3.2197449493       -3.0094739595       -1.4292089012
 O          2.0755374291       -0.9527405296       -1.1181542509
 C          1.2930793990        0.1790162703       -0.9181742408
 O          0.3460728590        0.2928370503       -1.7155947808
 H         -0.2401239011        0.0518834598        1.4641394691
 C         -1.0149705112        0.7527442097        1.1783061992
 C         -0.6597544813        1.9556276699        0.5839459794
 C         -1.6741085113        2.8379019798        0.2285526694
 C         -3.0004506713        2.5218127397        0.4661704893
 C         -3.3494028912        1.3148488695        1.0433339492
 C         -2.3447810312        0.4199027796        1.3879901091
 N         -2.6879730611       -0.8316284105        1.9258193889
 S         -3.9561209209       -1.6604284005        1.2095733387
 O         -5.1953267810       -1.2599285307        1.8307537587
 O         -3.6168629908       -3.0607229805        1.3465601985
 C         -3.9763081909       -1.1788152503       -0.5098120112
 C         -2.7997964209       -1.2082617001       -1.2309119212
 C         -2.8133681909       -0.8043216599       -2.5557175811
 C         -4.0019362709       -0.3950602699       -3.1400586011
 C         -5.1795087409       -0.3868132301       -2.4081950112
 C         -5.1681088209       -0.7753898503       -1.0784852912
 H         -6.0555161010       -0.7655724205       -0.4664937312
 H         -6.1027469609       -0.0697277702       -2.8657306212
 H         -4.0069863909       -0.0778056898       -4.1709031811
 H         -1.8853487409       -0.7901862197       -3.1044409611
 H         -1.8789397109       -1.5209401101       -0.7646941212
 H         -1.8983287210       -1.4421898305        2.0757141688
 H         -4.3773245812        1.0491911894        1.2310514791
 H         -3.7743874114        3.2213367196        0.1908117294
 H         -1.4235647914        3.7771089599       -0.2363939304
 C          0.7985328187        2.2777116000        0.3623177295
 H          1.1916530886        2.7234714899        1.2891038595
 C          1.0133622087        3.2581217402       -0.7753614304
 C          1.0453563985        4.7346738702       -0.5202790902
 C          2.3113262786        4.0037436903       -0.8481103802
 H          2.7655260286        4.1584490205       -1.8153398402
 H          3.0241128786        3.8328644003       -0.0542546702
 H          0.6303875285        5.3955206602       -1.2664214501
 H          0.9083649684        5.0721067600        0.4960775099
 H          0.5852873787        2.9079007303       -1.7079390005
 O          3.0250328587        1.5186883600        1.9659550095
