  62
        -98.94338465
 C         -1.1226382951       -1.2836155461       -0.1421361015
 C         -1.9238959532       -0.8714949252        0.9549555747
 C         -2.8167666595        0.2696686314        0.7215493062
 C         -2.8008421494        0.8776811574       -0.4781661565
 C         -3.7093030609        2.0017118312       -0.8829822060
 C         -4.9923409172        1.4670521929       -1.5351130293
 C         -5.6809164397        0.3641033771       -0.7309269478
 H         -6.5906325160        0.0890172488       -1.2691174324
 H         -5.0389769167       -0.5196927364       -0.7141954738
 C         -6.0383845640        0.7564301505        0.7096370409
 H         -6.0284890132        1.8421555304        0.8118597606
 H         -7.0560260553        0.4213417271        0.9211914430
 C         -5.1351156689        0.1376297344        1.7782688695
 H         -5.0726780862       -0.9425481081        1.6238115633
 H         -5.6014368959        0.3013100382        2.7534501693
 C         -3.7086594124        0.6970504423        1.8528763622
 H         -3.2472735043        0.3047921182        2.7637680342
 H         -3.7460895140        1.7857105683        1.9272259293
 H         -4.7404344698        1.0660894643       -2.5196031037
 H         -5.6821168911        2.3013316036       -1.6750995329
 H         -3.9618530293        2.5962747690       -0.0070387126
 H         -3.1828727767        2.6297994432       -1.6031110263
 O         -1.9777746617        0.4966285113       -1.4845803360
 C         -1.1266969685       -0.5920194499       -1.3540245539
 O         -0.4489873955       -0.8157276144       -2.3753408741
 O         -1.9014783350       -1.4459333796        2.0756283265
 C         -0.2573690818       -2.5144094227        0.0757989127
 C          1.1389230206       -2.1169413888        0.4756288328
 C          1.6975935454       -2.5447145679        1.6735977917
 C          2.9689701218       -2.1391508545        2.0451608674
 C          3.7071545490       -1.2982887499        1.2310908776
 C          3.1534679550       -0.8636387719        0.0339916868
 C          1.8827003986       -1.2723525310       -0.3384676277
 H          1.4565482908       -0.9270764596       -1.2691118351
 N          3.8828297004        0.0326759135       -0.7852951587
 S          3.9617682035        1.5925375004       -0.1793044514
 O          4.5433335736        2.3995340582       -1.2266779158
 O          4.6730907755        1.5587763761        1.0727413196
 C          2.2671106472        2.0792611734        0.0976673509
 C          1.6296639780        2.8501864038       -0.8531163878
 C          0.3062748172        3.2059565722       -0.6506698011
 C         -0.3582713632        2.7703635192        0.4847756574
 C          0.2881508482        1.9764264624        1.4191092535
 C          1.6159877029        1.6299388194        1.2297106305
 H          2.1520409961        1.0285964778        1.9459368026
 H         -0.2401101609        1.6198965098        2.2893861801
 H         -1.3876405676        3.0482590647        0.6444702042
 H         -0.2032552537        3.8167517235       -1.3785791191
 H          2.1840125063        3.1678737715       -1.7218479207
 H          3.5169037230        0.0752987954       -1.7274865667
 H          4.6877876182       -0.9520784552        1.5138078839
 H          3.3882863796       -2.4784257949        2.9800685703
 H          1.1220071493       -3.1860599734        2.3248189452
 H         -0.7148461870       -3.0228013596        0.9388201970
 C         -0.2991109156       -3.4843496504       -1.0984377391
 C          0.8927200718       -3.8433701434       -1.9302641934
 C          0.3286445323       -4.8407139725       -0.9664583257
 H         -0.2001520229       -5.6987558629       -1.3527774212
 H          0.8943280120       -5.0372573809       -0.0679859212
 H          0.7351522707       -3.9931065287       -2.9876874280
 H          1.8430452374       -3.3908795516       -1.6947360956
 H         -1.2472445881       -3.4405815676       -1.6249794417
