  62
        -98.93747175
 C         -2.2721096728       -0.6317524900        0.0742255853
 C         -3.1830711826       -0.3342729396        1.1213348553
 C         -4.1677922493        0.7309953044        0.8719815087
 C         -4.1445659952        1.3717793098       -0.3091105026
 C         -5.0837668541        2.4417265991       -0.7926106439
 C         -6.2392946858        1.8251573383       -1.5993174227
 C         -7.4400602257        1.3773564892       -0.7667634645
 H         -7.9682174955        2.2584902431       -0.3964444017
 H         -8.1196026811        0.8459857820       -1.4371082719
 C         -7.1114390228        0.4692649614        0.4211733120
 H         -8.0221172283       -0.0677660575        0.6935428344
 H         -6.3744158649       -0.2776701749        0.1204479815
 C         -6.6035277678        1.2405267814        1.6485851795
 H         -7.1815850167        0.9439612000        2.5262268385
 H         -6.7885139009        2.3045007240        1.5021983601
 C         -5.1247002437        1.0162589206        1.9971248616
 H         -4.7549327437        1.8805308160        2.5587942277
 H         -5.0345121088        0.1516206712        2.6620734419
 H         -5.8406406889        0.9745873023       -2.1583789410
 H         -6.5885447260        2.5593241381       -2.3282337908
 H         -4.5044222974        3.0888470595       -1.4544846969
 H         -5.4555678613        3.0331524755        0.0387225578
 O         -3.2446939596        1.0689559598       -1.2826160647
 C         -2.2992351075        0.0692457984       -1.1307474723
 O         -1.5687318847       -0.0729275231       -2.1335368437
 O         -3.1820402499       -0.9496942896        2.2209665350
 C         -1.2889573264       -1.7609692179        0.3324681232
 C          0.0884853972       -1.2542955785        0.6894339136
 C          0.6509692825       -1.5390813087        1.9281611985
 C          1.9279194863       -1.1055973967        2.2392940608
 C          2.6679626671       -0.3783594956        1.3245236722
 C          2.1133564103       -0.0842652016        0.0857397895
 C          0.8352292761       -0.5249254034       -0.2250779557
 H          0.4082732827       -0.2901269399       -1.1891051930
 N          2.8524955360        0.6713514517       -0.8455780913
 S          4.3495823800        0.0598618279       -1.3060033645
 O          4.6194482868        0.6410269252       -2.6029669559
 O          4.3769152976       -1.3830685650       -1.2303161781
 C          5.4790140481        0.7512909902       -0.1154566432
 C          6.2629702073       -0.0841748863        0.6559795473
 C          7.1409654724        0.4767887593        1.5704777120
 C          7.2193298992        1.8553544404        1.6959128177
 C          6.4269738602        2.6806020923        0.9114930754
 C          5.5481443230        2.1263979408       -0.0054137738
 H          4.9181802437        2.7307379677       -0.6367039494
 H          6.4911055939        3.7521756628        1.0115140011
 H          7.9022013970        2.2895687443        2.4089886379
 H          7.7579809182       -0.1628731572        2.1808416445
 H          6.1629837421       -1.1500579212        0.5273609347
 H          2.3142906253        0.9153916058       -1.6655190654
 H          3.6621024071       -0.0360137554        1.5613848709
 H          2.3514746020       -1.3351306703        3.2050292435
 H          0.0754128678       -2.0976901652        2.6518083493
 H         -1.6867288266       -2.2860764973        1.2113179263
 C         -1.2032823211       -2.7494403826       -0.8154186714
 C         -0.7016050483       -4.1348288220       -0.5448567071
 C         -2.1494434132       -3.9097294822       -0.8601215893
 H         -2.5269705041       -4.2292788015       -1.8198735507
 H         -2.8658492324       -4.0010211579       -0.0566948686
 H         -0.0786986482       -4.6099586217       -1.2872092220
 H         -0.4366679159       -4.3804000706        0.4723265730
 H         -0.9332749617       -2.2925325479       -1.7589431213
