  62
        -98.94641127
 C         -1.5749117602       -1.0909027591        0.0381777199
 C         -2.6433634201       -0.8321429492        0.9337919400
 C         -3.3632692497        0.4319576612        0.7339039705
 C         -2.9515581594        1.2767849314       -0.2288097792
 C         -3.6110904790        2.5828138918       -0.5623639687
 C         -4.6807118390        2.4032838526       -1.6488196188
 C         -5.6547987194        1.2577745227       -1.3735319593
 H         -6.3809103393        1.2454807633       -2.1893251894
 H         -5.1123764097        0.3103102426       -1.4128773097
 C         -6.3947967294        1.3616546324       -0.0325745693
 H         -6.3388351091        2.3837646823        0.3437046411
 H         -7.4503256095        1.1348569628       -0.1970711695
 C         -5.8947966898        0.3969564818        1.0445022103
 H         -5.8621171701       -0.6179756180        0.6400985899
 H         -6.6183823098        0.3985054317        1.8640269903
 C         -4.5216629697        0.7218206911        1.6461714405
 H         -4.5024900894        1.7620320010        1.9772387910
 H         -4.3819053099        0.0804304607        2.5212105303
 H         -5.2347310187        3.3387206328       -1.7460592784
 H         -4.1800108690        2.2049912628       -2.5993828488
 H         -4.0597977289        2.9974804515        0.3380671215
 H         -2.8492287987        3.2729504017       -0.9285686483
 O         -1.9034318294        1.0099161014       -1.0473529592
 C         -1.2011444298       -0.1840972388       -0.9534985597
 O         -0.2920674798       -0.3001493488       -1.7969042297
 H          1.5140958296       -2.0569645896       -1.2442216003
 C          1.6495997096       -1.8193067301       -0.2014633802
 C          0.5975498895       -1.9747050501        0.6869625297
 C          0.7987840196       -1.6402494907        2.0236672198
 C          2.0212744497       -1.1625126613        2.4570391601
 C          3.0617209898       -0.9814254912        1.5617136502
 C          2.8646876598       -1.3009591706        0.2253265701
 N          3.8946179499       -1.0615482606       -0.7029169698
 S          4.6450711003        0.4321746992       -0.6109947491
 O          5.0587072705        0.7396280296       -1.9628359690
 O          5.7092394803        0.3697330484        0.3618192509
 C          3.4063103707        1.5939246493       -0.0540659287
 C          2.1880757907        1.6448902600       -0.7015727187
 C          1.2349840310        2.5497532701       -0.2625549084
 C          1.5131153212        3.3889609096        0.8047118719
 C          2.7444129712        3.3309586289        1.4392568420
 C          3.6996085609        2.4243493488        1.0093299817
 H          4.6653563108        2.3384073683        1.4806122217
 H          2.9599475013        3.9849381285        2.2688324123
 H          0.7650002214        4.0888585797        1.1426326722
 H          0.2758243610        2.5769185706       -0.7558914885
 H          1.9673709506        0.9797794504       -1.5215039890
 H          3.6262822599       -1.2636357801       -1.6555374999
 H          4.0165881799       -0.5909958917        1.8751171604
 H          2.1640041697       -0.9146791917        3.4976738702
 H         -0.0244249505       -1.7454018607        2.7163261297
 C         -0.7808760106       -2.3744126895        0.2248399994
 H         -1.2795833908       -2.9115834096        1.0422095892
 C         -0.7934541508       -3.2459062489       -1.0126840109
 C         -0.3394465213       -4.6705349491       -0.9097510915
 C         -1.7907636211       -4.3591926386       -1.1144563414
 H         -2.2329330212       -4.5679283480       -2.0772267515
 H         -2.4667223112       -4.5026659187       -0.2842805815
 H         -0.0280807914       -5.0236203796        0.0616822684
 H          0.2164423887       -5.0968997390       -1.7308547116
 H         -0.5658365706       -2.7058945286       -1.9237768007
 O         -2.9770294304       -1.6220615194        1.8562284496
