  62
        -98.94062664
 C         -2.4310656905       -1.0226408288       -0.1174421158
 C         -3.7321011870       -1.1706095450        0.4198022491
 C         -4.7935781376       -0.4057661338       -0.2472252131
 C         -4.4810710185        0.3696821322       -1.3018461307
 C         -5.4540406766        1.2415779069       -2.0405865729
 C         -5.5034052545        2.6539482536       -1.4412456321
 C         -5.6734291756        2.6754435606        0.0778275574
 H         -4.7799191882        2.2511028818        0.5418408140
 H         -5.7263329872        3.7225070678        0.3840905969
 C         -6.9138697409        1.9293857905        0.5889977945
 H         -7.6224730545        1.7861883405       -0.2274919460
 H         -7.4076338480        2.5466680996        1.3424287952
 C         -6.6164601390        0.5794389119        1.2441575833
 H         -5.8372893142        0.7032868483        2.0005932014
 H         -7.5209664214        0.2445347554        1.7587945550
 C         -6.1898516537       -0.5445514991        0.2915980062
 H         -6.1999139094       -1.4805658754        0.8577171659
 H         -6.9107667875       -0.6285978577       -0.5240491807
 H         -4.5712126710        3.1676307158       -1.6880624981
 H         -6.3256750004        3.1986155740       -1.9088736013
 H         -6.4416582203        0.7858249899       -2.0043201148
 H         -5.1326095991        1.3097775981       -3.0812091893
 O         -3.2202721301        0.4817518240       -1.7935121382
 C         -2.1628015444       -0.2047072830       -1.2146271426
 O         -1.0613969318       -0.0110734186       -1.7644740723
 O         -3.9918347848       -1.9065770542        1.4095425643
 C         -1.2834403309       -1.7821474185        0.5233774154
 C         -0.2328856539       -0.8115376077        1.0033141171
 C         -0.6177877801        0.2200432800        1.8564608340
 C          0.3033824381        1.1439450729        2.3085769498
 C          1.6320541951        1.0583183518        1.9285990840
 C          2.0279534995        0.0333825282        1.0817678781
 C          1.0971413626       -0.8951259588        0.6273920772
 H          1.4194187050       -1.6823614386       -0.0360063511
 N          3.3804651672       -0.0971178336        0.7120313010
 S          4.2570092685        1.2857975059        0.3008840806
 O          4.5366863810        2.0278373768        1.5046738189
 O          3.5898216866        2.0181161269       -0.7529985739
 C          5.7557504864        0.5374332769       -0.3067954182
 C          6.7248301274        0.1603671147        0.6034102152
 C          7.8775382439       -0.4524324561        0.1387174473
 C          8.0406023307       -0.6777514983       -1.2201351161
 C          7.0598114391       -0.2923281359       -2.1216727475
 C          5.9038303565        0.3202292495       -1.6634649431
 H          5.1188666482        0.6433821542       -2.3288782932
 H          7.1903347459       -0.4662470517       -3.1777046043
 H          8.9386828062       -1.1545829059       -1.5798831119
 H          8.6436938552       -0.7514307370        0.8357075734
 H          6.5575841172        0.3633068459        1.6481427263
 H          3.5031940045       -0.8040540705       -0.0011394767
 H          2.3575938988        1.7792508044        2.2679146042
 H         -0.0122337870        1.9422726928        2.9639686173
 H         -1.6556290056        0.2913162233        2.1534269105
 H         -1.7175396806       -2.2773727378        1.4044568174
 C         -0.7610432137       -2.8432071927       -0.4217515237
 C         -0.0769259379       -4.0626908235        0.1182148443
 C         -1.4511716623       -4.1722565500       -0.4687926520
 H         -1.5681613717       -4.6581002369       -1.4258687085
 H         -2.2861075453       -4.3203741256        0.2002010199
 H          0.7499080779       -4.4796878594       -0.4367713653
 H          0.0245634549       -4.1436762075        1.1897492341
 H         -0.4116390909       -2.4291732478       -1.3612924440
