  62
        -98.93348850
 C          2.4661936210        1.4561642777        0.2059223171
 C          2.3609183963        0.2693036905       -0.5616257118
 C          3.5391256406       -0.6185577124       -0.5445790444
 C          4.6237636053       -0.2689928755        0.1684099154
 C          5.8672759766       -1.0948548162        0.3366683513
 C          5.6182076045       -2.2196814126        1.3615959796
 C          5.6739620446       -3.6304101464        0.7750303243
 H          6.7175416955       -3.9034863683        0.6052161118
 H          5.2724264584       -4.3132374684        1.5267571520
 C          4.9165519266       -3.8367602237       -0.5403276467
 H          5.5148072707       -3.4609552433       -1.3717345860
 H          4.8222485396       -4.9147495624       -0.6875696512
 C          3.5197289510       -3.2064197505       -0.6170495552
 H          3.1005562517       -3.0726853787        0.3806758776
 H          2.8612878920       -3.8999060606       -1.1446126588
 C          3.4603542123       -1.8682970280       -1.3774225259
 H          4.2413016577       -1.8480931393       -2.1430632020
 H          2.4957409252       -1.8033461021       -1.8902764695
 H          6.3567568278       -2.1530108369        2.1618178964
 H          4.6413885933       -2.0541550760        1.8211227254
 H          6.1660763893       -1.5101322848       -0.6231802412
 H          6.6539389348       -0.4275216119        0.6893831404
 O          4.6834003815        0.8730274039        0.9009163226
 C          3.6124768901        1.7478659010        0.9522051186
 O          3.7999320175        2.7374042013        1.6871645496
 H         -0.7171989102        1.7623125029       -1.3537403322
 C         -0.8998053503        1.4671851107       -0.3323045460
 C          0.0429284173        1.7527084979        0.6412712535
 C         -0.1928563571        1.3271238970        1.9449043812
 C         -1.3494954042        0.6407639063        2.2636331897
 C         -2.2891236975        0.3557515787        1.2881371667
 C         -2.0512870711        0.7557005313       -0.0196155512
 N         -2.9912411771        0.4681300116       -1.0213543543
 S         -3.7588316010       -1.0214724633       -1.0405177980
 O         -2.9436065555       -2.0703191301       -0.4739857591
 O         -4.1819985882       -1.2046440186       -2.4121806983
 C         -5.2011073727       -0.7546804711       -0.0276233764
 C         -6.0064312216        0.3306831255       -0.3125212593
 C         -7.1377233677        0.5458648186        0.4580116406
 C         -7.4456843531       -0.3245296107        1.4930243911
 C         -6.6298813438       -1.4120752694        1.7640436033
 C         -5.4960895657       -1.6321552694        0.9971687486
 H         -4.8300920941       -2.4617499343        1.1751608373
 H         -6.8708197207       -2.0885327792        2.5683442360
 H         -8.3266093321       -0.1545269345        2.0917043872
 H         -7.7746253491        1.3904995114        0.2499657848
 H         -5.7341681492        0.9817124555       -1.1262434027
 H         -2.6860376310        0.7284167032       -1.9479771745
 H         -3.1858516799       -0.1920297305        1.5272291265
 H         -1.5217696291        0.3208082551        3.2801747804
 H          0.5487483623        1.5345439311        2.7044944537
 C          1.3326968298        2.4640893790        0.3191202464
 H          1.5993949761        3.0877688218        1.1871434408
 C          1.2056517936        3.4098719141       -0.8665554924
 C          2.4309678568        3.9797030541       -1.5151537763
 C          1.5585969010        3.0244853566       -2.2702072072
 H          0.9496906330        3.4149291942       -3.0730760824
 H          1.9202059874        2.0239717478       -2.4468780801
 H          2.4273670730        5.0204605314       -1.8016433352
 H          3.3885204870        3.6266189087       -1.1603927944
 H          0.3646195485        4.0864811161       -0.7474962673
 O          1.3513726529       -0.0476582650       -1.2435861861
