  62
        -98.94436523
 C          1.8956439999        0.7777565600       -0.0077052710
 C          2.4223562398       -0.5173971598        0.2138708204
 C          3.8353062098       -0.5668429995        0.6119467003
 C          4.5291196099        0.5755640906        0.7667690490
 C          5.9669686400        0.6878710309        1.1959619688
 C          6.9750484099        0.5243990796        0.0503657889
 C          7.1274069397       -0.9007360410       -0.4825779695
 H          8.0110810897       -0.9103386318       -1.1237757196
 H          7.3211412297       -1.5795753201        0.3485200212
 C          5.9250946596       -1.4058715418       -1.2924862389
 H          5.3068679497       -0.5576786320       -1.5955438798
 H          6.2783039795       -1.8865939828       -2.2076168484
 C          5.0468595996       -2.4197837209       -0.5589650277
 H          5.6195665895       -3.3299506807       -0.3670681268
 H          4.2083110195       -2.6811035715       -1.2097216174
 C          4.4732133997       -1.9136955494        0.7711450018
 H          3.6976820097       -2.6109054990        1.0979984226
 H          5.2553572398       -1.8791848886        1.5293168817
 H          6.6868020499        1.1900406087       -0.7664634818
 H          7.9472748499        0.8560962399        0.4220324985
 H          6.0872162501        1.6871255814        1.6199904877
 H          6.1758171400       -0.0472373782        1.9736375596
 O          3.9773036700        1.8017994204        0.5646347577
 C          2.6597910700        1.9327754201        0.1565708777
 O          2.2877002501        3.1118058400       -0.0125874236
 H         -1.6717870303       -0.7962542406       -0.8610692690
 C         -1.5026503002       -0.5569936895        0.1750349407
 C         -0.4732483601        0.2909005508        0.5513321097
 C         -0.2942589400        0.5603039723        1.9064795394
 C         -1.1045808000       -0.0264085966        2.8577543501
 C         -2.1256412101       -0.8807020469        2.4784409911
 C         -2.3230462402       -1.1453495984        1.1297041514
 N         -3.3511886403       -2.0082447487        0.7148231224
 S         -4.3404100303       -1.5596540000       -0.5564797180
 O         -5.5173238104       -2.3876980198       -0.4107330170
 O         -3.6359285904       -1.6723202015       -1.8072537979
 C         -4.7429803402        0.1437961604       -0.2157742698
 C         -5.6490408801        0.4086250216        0.7928430099
 C         -5.9217665799        1.7264815219        1.1202810485
 C         -5.2799021299        2.7523459711        0.4428736874
 C         -4.3756644400        2.4697633700       -0.5688885624
 C         -4.1017392301        1.1529563196       -0.9038242310
 H         -3.4083533302        0.8927596087       -1.6863401307
 H         -3.8794155999        3.2691459393       -1.0960043033
 H         -5.4870012598        3.7785798614        0.7023823063
 H         -6.6290375198        1.9505379529        1.9024622783
 H         -6.1342680201       -0.4162370979        1.2889788509
 H         -3.8945397503       -2.3989729179        1.4707669229
 H         -2.7557458201       -1.3468068461        3.2205756417
 H         -0.9434780499        0.1838792445        3.9043236499
 H          0.5033147001        1.2280952825        2.2032904686
 C          0.4519560199        0.9426495497       -0.4471457411
 H          0.2554101900        2.0249617297       -0.4417257622
 C          0.2802909397        0.4236202581       -1.8596456205
 C         -0.7089730703        1.0605757572       -2.7866943511
 C          0.7599954597        1.2608159468       -3.0057315914
 H          1.2326517796        0.7682081859       -3.8422405209
 H          1.1844559298        2.2261194571       -2.7697728725
 H         -1.2548478004        0.4292464665       -3.4725571504
 H         -1.2726956302        1.9011155077       -2.4105500920
 H          0.4320466096       -0.6476433520       -1.9323958193
 O          1.7516754597       -1.5752551399        0.0922643316
