  62
        -98.94045293
 C         -1.5066590594       -1.2347988778       -0.0169643732
 C         -2.5943782660       -0.9526551377        0.8439931914
 C         -3.3674200324        0.2745839316        0.5729969431
 C         -2.9797214674        1.0704077478       -0.4407716446
 C         -3.6148197384        2.3498783244       -0.9161980905
 C         -4.8988143413        2.1070966024       -1.7262543320
 C         -5.8431557343        1.0621119236       -1.1377867315
 H         -6.6509986895        0.9025162738       -1.8569531626
 H         -5.3108652405        0.1146988935       -1.0348146426
 C         -6.4768879732        1.4366147433        0.1999117438
 H         -7.1860132886        0.6449818526        0.4554758204
 H         -7.0438309695        2.3627063532        0.0807265361
 C         -5.5111887239        1.6061376844        1.3746142599
 H         -6.1123700822        1.6287553800        2.2882954857
 H         -4.9948538734        2.5607375764        1.3228709912
 C         -4.5065842719        0.4705804334        1.5439569647
 H         -4.0386539630        0.5641065446        2.5313724181
 H         -5.0461448598       -0.4830519810        1.5720037021
 H         -5.4246923320        3.0573215544       -1.8330550931
 H         -4.6094216969        1.7681444626       -2.7240676276
 H         -3.8068042083        3.0069454815       -0.0733865744
 H         -2.8869713571        2.8431997792       -1.5642298305
 O         -1.9142924211        0.7669537562       -1.2349166663
 C         -1.1596978605       -0.3792921266       -1.0613926137
 O         -0.2360116406       -0.5062486515       -1.8881662980
 O         -2.9176898038       -1.6999929603        1.8055538839
 C         -0.6703962604       -2.4726535446        0.2663557850
 C          0.6781160791       -1.9900925621        0.7376143378
 C          0.8422544666       -1.6029166178        2.0650160503
 C          2.0321795554       -1.0482707248        2.4979699326
 C          3.0742566642       -0.8405331890        1.6103871932
 C          2.9130921461       -1.2121092067        0.2825922508
 C          1.7339607947       -1.8090234617       -0.1416964014
 H          1.6252173052       -2.0853972059       -1.1780220232
 N          3.9393509675       -0.9430757756       -0.6416817553
 S          4.5970803418        0.5956451707       -0.5899406373
 O          5.0014213893        0.8892856519       -1.9476243026
 O          5.6561824548        0.6258663874        0.3899458345
 C          3.2875726253        1.6966612019       -0.0721048791
 C          3.5295420324        2.5779381118        0.9629120241
 C          2.5211243380        3.4385037589        1.3650017233
 C          1.2886429346        3.4007056589        0.7313559039
 C          1.0624502370        2.5117921009       -0.3075660734
 C          2.0686592464        1.6525152380       -0.7190532159
 H          1.8892100340        0.9494276746       -1.5173637892
 H          0.1035435031        2.4661641659       -0.8000093349
 H          0.4989893439        4.0642209235        1.0473504960
 H          2.6967366591        4.1312034400        2.1722332575
 H          4.4986854167        2.5658832112        1.4348781007
 H          3.6941613055       -1.1902307850       -1.5899537852
 H          4.0023995567       -0.3892849447        1.9224971974
 H          2.1470206351       -0.7604357089        3.5317338477
 H          0.0153513551       -1.7274794254        2.7499338229
 H         -1.1705003816       -2.9798381765        1.1016976582
 C         -0.6126515780       -3.4159331383       -0.9160131479
 C         -0.0987593385       -4.8094471580       -0.7150084421
 C         -1.5563954413       -4.5780017314       -0.9734688183
 H         -1.9626592610       -4.8640450261       -1.9321641297
 H         -2.2474824995       -4.7022197655       -0.1527381981
 H          0.4976014375       -5.2581940986       -1.4947064450
 H          0.2015744216       -5.0887575544        0.2835433618
 H         -0.3848150051       -2.9221937368       -1.8528539375
