  62
        -98.93593042
 C          1.4228962362        1.3179603279        0.7924549891
 C          2.1759234654        0.8206144698       -0.2945031615
 C          2.7583001287       -0.5246143613       -0.1337663991
 C          2.5360231152       -1.2020573312        1.0065363690
 C          2.9740152069       -2.5950725636        1.3842226183
 C          4.4051848395       -3.0099828397        1.0119168666
 C          4.4670374205       -4.0283211806       -0.1281011801
 H          5.4016990087       -4.5877915942       -0.0469867006
 H          3.6482522872       -4.7397377606       -0.0015774751
 C          4.4050180632       -3.4366892656       -1.5350688012
 H          5.3447391711       -2.9249650360       -1.7541558892
 H          4.3142935445       -4.2670226822       -2.2393273541
 C          3.2565281794       -2.4570016451       -1.7841378955
 H          3.0762567533       -2.4181820370       -2.8609908142
 H          2.3337796371       -2.8138406128       -1.3252370257
 C          3.5551012210       -1.0277574558       -1.3058355107
 H          3.3365846265       -0.3190832166       -2.1109328787
 H          4.6214569853       -0.9215616097       -1.0870391504
 H          4.9956487187       -2.1287050803        0.7676763964
 H          4.8560933983       -3.4676221701        1.8940214360
 H          2.2566966845       -3.2983987887        0.9518335572
 H          2.8433113894       -2.6474507839        2.4678329205
 O          1.7958696973       -0.6838697083        2.0281917236
 C          1.2007646686        0.5596435809        1.9389943331
 O          0.5126828947        0.8775134832        2.9319874528
 O          2.3510011588        1.4666133255       -1.3624724740
 C          0.7188650187        2.6582713005        0.6778850952
 C         -0.2475792713        2.6053426330       -0.4821995365
 C         -0.3997578755        3.6279459624       -1.4077740527
 C         -1.2789789754        3.4796492814       -2.4676325014
 C         -2.0129675926        2.3197131151       -2.6267443913
 C         -1.8826286906        1.2955148377       -1.6920119128
 C         -1.0218634432        1.4591242222       -0.6201256592
 H         -0.8978938045        0.6586121609        0.0939828455
 N         -2.6431145174        0.1274214640       -1.8239552212
 S         -2.3776774038       -1.3501560576       -1.1019438506
 O         -1.0211803875       -1.5069712243       -0.6320846311
 O         -2.8291601535       -2.3245678880       -2.0733538005
 C         -3.5124558441       -1.3657306452        0.2756508198
 C         -4.2425256179       -2.5158702403        0.5056554737
 C         -5.1260211843       -2.5537246650        1.5725804420
 C         -5.2652650377       -1.4438841995        2.3913489647
 C         -4.5274723307       -0.2958292896        2.1476948552
 C         -3.6420180096       -0.2522435919        1.0816636474
 H         -3.0583717268        0.6306026162        0.8763069183
 H         -4.6341329656        0.5685919535        2.7834464325
 H         -5.9523075328       -1.4713100378        3.2223026373
 H         -5.7011857174       -3.4460385939        1.7604825353
 H         -4.1092158494       -3.3516122602       -0.1618901250
 H         -3.1435982752        0.0299376839       -2.6933007404
 H         -2.6792644486        2.1992042417       -3.4670901996
 H         -1.3831815631        4.2755849496       -3.1893794933
 H          0.1798346691        4.5312390039       -1.3112402184
 H          0.1389681023        2.7767117214        1.6054569200
 C          1.7217560533        3.7880550052        0.5803796065
 C          1.3813532927        5.1486369046        1.1081011335
 C          2.3696666987        4.2885700208        1.8351497413
 H          3.4143885399        4.5588400497        1.8034158954
 H          2.0659750203        3.8298871746        2.7651782242
 H          1.7506988173        6.0141708987        0.5789991171
 H          0.4068041279        5.2839510944        1.5522368291
 H          2.3379814742        3.7194750530       -0.3084988892
