  62
        -98.94042340
 C          2.3183745292       -0.3813314686       -0.1616681210
 C          3.5453385382       -0.9664144933       -0.5568619568
 C          4.6945435167       -0.0557080515       -0.6400367799
 C          4.5170202940        1.2515193826       -0.3745569951
 C          5.6087281454        2.2813683830       -0.3716711286
 C          6.2278725422        2.4284064406        1.0253011980
 C          6.6155377186        1.0982248783        1.6712812236
 H          7.0694964934        1.3262758549        2.6381205193
 H          5.7093121546        0.5214607341        1.8704814211
 C          7.5849497565        0.2473310703        0.8389464984
 H          8.0731267562        0.8697773547        0.0882652274
 H          8.3656233756       -0.1386708761        1.4977572422
 C          6.9424609973       -0.9610530178        0.1551681448
 H          6.3727288213       -1.5368978143        0.8889161413
 H          7.7426832985       -1.6061981798       -0.2171428635
 C          6.0206766751       -0.6458916910       -1.0298059113
 H          6.5392498942        0.0039109874       -1.7374802609
 H          5.7917560009       -1.5897877076       -1.5330807233
 H          7.1090381134        3.0677243180        0.9469724981
 H          5.5031352291        2.9255849841        1.6741660086
 H          6.3731987312        1.9954319584       -1.0913342039
 H          5.1785101804        3.2383109403       -0.6715479600
 O          3.3164933270        1.7820534894       -0.0274911949
 C          2.1899078184        0.9824835382        0.1010719171
 O          1.1629760460        1.5978451966        0.4443238158
 H         -1.4861124490       -0.4427548394        0.5634957897
 C         -1.2482937383       -0.3973842192       -0.4855426051
 C          0.0017372661       -0.7772188671       -0.9450956505
 C          0.2643709702       -0.6969525663       -2.3110438236
 C         -0.6997845883       -0.2443662105       -3.1897628839
 C         -1.9485790506        0.1325773540       -2.7270031505
 C         -2.2184574119        0.0635209599       -1.3655721591
 N         -3.4621308194        0.4815384891       -0.8668192631
 S         -4.1023495467       -0.2514180566        0.5087146305
 O         -3.4767406180        0.3029255751        1.6825468458
 O         -4.0503057045       -1.6906462218        0.3762490594
 C         -5.7890006940        0.3191427383        0.4067339682
 C         -6.0653294173        1.6188326391        0.7881280876
 C         -7.3670308151        2.0834730071        0.6899266955
 C         -8.3654815938        1.2455929452        0.2150611648
 C         -8.0735494828       -0.0566060227       -0.1615426241
 C         -6.7729667105       -0.5271942696       -0.0677750801
 H         -6.5000615203       -1.5334958695       -0.3419787858
 H         -8.8526242208       -0.7059821787       -0.5270013417
 H         -9.3780323082        1.6096359784        0.1411321701
 H         -7.5979901571        3.0946180294        0.9841417543
 H         -5.2585739654        2.2290491099        1.1600176923
 H         -4.1600028017        0.5968820369       -1.5886574516
 H         -2.7025447881        0.4888569553       -3.4123572063
 H         -0.4811789813       -0.1885581359       -4.2456692139
 H          1.2407468264       -0.9924481610       -2.6710299105
 C          1.0939264726       -1.2690191647       -0.0286903764
 H          1.4129823251       -2.2621630494       -0.3789224080
 C          0.6693910872       -1.3803509587        1.4198917922
 C         -0.1379770029       -2.5583602161        1.8736278666
 C          1.2954570920       -2.4265979644        2.2902398563
 H          1.5138168390       -2.1789345250        3.3182160492
 H          2.0225799698       -3.0819117439        1.8332097228
 H         -0.9120460691       -2.3981493520        2.6094573997
 H         -0.3889354080       -3.3045469081        1.1346926251
 H          0.4578814185       -0.4165725680        1.8711429999
 O          3.6716220312       -2.1904537405       -0.8307346129
