  62
        -98.93899783
 C         -2.0856092345       -0.7659198316        0.5687801243
 C         -2.0277838379       -0.0317158594       -0.6378127110
 C         -2.0154393407        1.4361749942       -0.5157408667
 C         -2.0241093697        1.9977586472        0.7070721147
 C         -1.9404582687        3.4473186699        1.1399289639
 C         -2.1645283915        4.5766592180        0.1376537737
 C         -3.5908566534        4.6806463791       -0.4009878696
 H         -4.2461326740        5.0027023509        0.4120359240
 H         -3.6085125364        5.4551630343       -1.1706907298
 C         -4.1711397899        3.3924015242       -0.9786644796
 H         -5.1851628002        3.6085711256       -1.3255354206
 H         -4.2529692146        2.6411683159       -0.1905509603
 C         -3.3958264243        2.7958961663       -2.1517857187
 H         -4.0017865373        1.9874425484       -2.5690394459
 H         -3.2648408789        3.5514767477       -2.9286542044
 C         -2.0175296192        2.2055050862       -1.8048092203
 H         -1.7466166677        1.4878198357       -2.5848192966
 H         -1.2444448578        2.9704738387       -1.7906304045
 H         -1.4520944054        4.4982683468       -0.6782715549
 H         -1.9415395707        5.5080398379        0.6654155627
 H         -2.6516701856        3.5535776788        1.9656272352
 H         -0.9411701085        3.5623987262        1.5758893601
 O         -2.0657151265        1.2445215306        1.8472786185
 C         -2.0855597529       -0.1376253390        1.8104559682
 O         -2.1107707677       -0.6835624784        2.9342105916
 H          0.3887597825       -1.2643018232        0.9399140276
 C          0.4154300925       -2.0341000590        0.1809439256
 C         -0.7540113657       -2.7021403201       -0.1599391916
 C         -0.6906340955       -3.7019803952       -1.1212262691
 C          0.5092728115       -3.9913730284       -1.7487602224
 C          1.6590068564       -3.2867537311       -1.4445015798
 C          1.6095943408       -2.2992962650       -0.4660624689
 N          2.7599148939       -1.5735149449       -0.1084948334
 S          2.5678246220        0.0352886281        0.3700023732
 O          2.2304107185        0.0642580740        1.7726702966
 O          1.6692484877        0.7302049453       -0.5235346000
 C          4.2371864686        0.6248600593        0.1499038176
 C          4.5678711388        1.3153189758       -1.0006593444
 C          5.8762497240        1.7386208620       -1.1759236071
 C          6.8269980130        1.4623976873       -0.2049406897
 C          6.4799420209        0.7687973306        0.9451153825
 C          5.1734250167        0.3441748873        1.1272563439
 H          4.8531593136       -0.1890630406        2.0071554541
 H          7.2207859406        0.5581680480        1.6993345216
 H          7.8442828410        1.7923872545       -0.3439313295
 H          6.1476732091        2.2808898614       -2.0672708734
 H          3.7923879922        1.5123782690       -1.7235975255
 H          3.5092794758       -1.6725616221       -0.7801876198
 H          2.5862264212       -3.4950483930       -1.9562067820
 H          0.5442245071       -4.7647336262       -2.5010812531
 H         -1.5828130843       -4.2430658701       -1.3908860587
 C         -2.0282525763       -2.2826864267        0.5341950754
 H         -1.9741250421       -2.6098658015        1.5835187862
 C         -3.2803311830       -2.8549220896       -0.0961936251
 C         -3.7804374155       -4.2080164630        0.3094011475
 C         -4.5181827665       -2.9766480626        0.7389407759
 H         -5.4717134939       -2.7577776975        0.2824776712
 H         -4.4480925320       -2.6691793147        1.7725186401
 H         -4.2328295519       -4.8370936182       -0.4422501254
 H         -3.2167346197       -4.7456303335        1.0568009594
 H         -3.4001833932       -2.5489060715       -1.1290019980
 O         -1.9848551891       -0.5761522704       -1.7728091475
