  62
        -98.94672184
 C         -1.9911233895       -1.4560147164       -0.0908670448
 C         -1.7167779235       -0.2200477769       -0.7219047219
 C         -2.8690500868        0.6722422840       -0.9108353578
 C         -4.0904723265        0.2622467435       -0.5228946739
 C         -5.3389450040        1.0908091266       -0.6068845861
 C         -5.5644932063        1.8879202986        0.6858730476
 C         -4.3298864090        2.6510896815        1.1660579073
 H         -4.6166678727        3.1973903520        2.0672226137
 H         -3.5585785670        1.9342248257        1.4569545057
 C         -3.7480051119        3.6310732553        0.1377093691
 H         -3.5205896647        4.5725738264        0.6419390074
 H         -4.4914944145        3.8466391151       -0.6304810556
 C         -2.4543479541        3.1573555558       -0.5276570885
 H         -2.0168997184        4.0065640952       -1.0597576145
 H         -1.7431114585        2.8442878895        0.2413752618
 C         -2.6070882357        2.0127459408       -1.5376231979
 H         -3.3863365771        2.2607291210       -2.2610595655
 H         -1.6597864195        1.9106400119       -2.0756556051
 H         -6.3859540157        2.5874582416        0.5207186167
 H         -5.8642829231        1.1922761149        1.4731496614
 H         -6.1865333751        0.4213751621       -0.7629717649
 H         -5.2630178348        1.7678752060       -1.4554975518
 O         -4.3206182166       -0.9504748945        0.0432840138
 C         -3.2791222370       -1.8295290077        0.2922849406
 O         -3.6213268320       -2.8910411171        0.8512762554
 O         -0.5690456025        0.1260559084       -1.1037838509
 C         -0.8564833988       -2.4262757294        0.1865902439
 C          0.1985164461       -1.7412766326        1.0210505361
 C         -0.1855955084       -1.1468604728        2.2215421736
 C          0.7372154641       -0.4993704160        3.0188576192
 C          2.0640847490       -0.4219045097        2.6309914000
 C          2.4593609319       -1.0156154952        1.4394122130
 C          1.5314230855       -1.6814805674        0.6478539242
 H          1.8692122463       -2.1268075840       -0.2723351689
 N          3.8056549820       -0.9743526448        1.0292837128
 S          4.2016699086       -0.3221549602       -0.4624182126
 O          3.5602039667       -1.0690529807       -1.5119039322
 O          5.6488364821       -0.3099341969       -0.4798304359
 C          3.5990315568        1.3558697479       -0.3986667981
 C          4.4944952420        2.3615743278       -0.0869099402
 C          4.0335877063        3.6629761887        0.0231845988
 C          2.6872954476        3.9350166218       -0.1700301917
 C          1.8027713046        2.9133186796       -0.4769747119
 C          2.2559405415        1.6077404474       -0.5932607686
 H          1.5755702061        0.8057407379       -0.8323370394
 H          0.7537719990        3.1132032176       -0.6283259981
 H          2.3249636120        4.9472546521       -0.0821902991
 H          4.7218206010        4.4584004824        0.2601292618
 H          5.5323421566        2.1035734252        0.0502014518
 H          4.4288915145       -0.5937513916        1.7281003752
 H          2.7871876837        0.0899401320        3.2479667261
 H          0.4220920818       -0.0444024452        3.9457813942
 H         -1.2247664463       -1.2011805410        2.5181984917
 H         -1.2907153422       -3.2414475019        0.7837969313
 C         -0.3276615443       -3.0041654839       -1.1090383066
 C          0.3179030851       -4.3560128269       -1.1189085226
 C         -1.0382948336       -4.1681235760       -1.7283385938
 H         -1.1315810984       -4.2030855645       -2.8034899643
 H         -1.8962749562       -4.5616076513       -1.2023365561
 H          1.1599001284       -4.5182498670       -1.7751681085
 H          0.3826126170       -4.8859802500       -0.1804861393
 H          0.0675396671       -2.2486259153       -1.7790753974
