  62
        -98.94286046
 C         -2.1077060102       -1.0568370799        0.2963593399
 C         -2.8045311701       -0.1841205102        1.1732582503
 C         -4.2013966601        0.1030320202        0.8348304103
 C         -4.7517687801       -0.4662360792       -0.2527666600
 C         -6.1760770700       -0.3104748888       -0.7119630200
 C         -6.4305117998        0.9483578017       -1.5519204093
 C         -6.4184349197        2.2631057713       -0.7712754587
 H         -6.8226320095        3.0323848817       -1.4322761983
 H         -7.0906720297        2.1830874309        0.0836345613
 C         -5.0267771596        2.7031492508       -0.2955068784
 H         -4.2611993597        2.1574425910       -0.8521709386
 H         -4.8849489395        3.7637601909       -0.5154092978
 C         -4.7782578597        2.5143821300        1.2011326115
 H         -3.7524667097        2.8232362698        1.4186920317
 H         -5.4516307697        3.1607242799        1.7686548018
 C         -4.9544156400        1.0724137098        1.6949315208
 H         -6.0124159000        0.8121440400        1.7247093806
 H         -4.5481579400        1.0045536293        2.7071614708
 H         -5.6866915798        0.9922426620       -2.3508226593
 H         -7.4123033598        0.8361718620       -2.0177149794
 H         -6.8409880401       -0.3127007891        0.1523208600
 H         -6.4009901401       -1.1850461085       -1.3262463504
 O         -4.0540281902       -1.2952415689       -1.0695747103
 C         -2.7180484102       -1.5953788592       -0.8371047704
 O         -2.2244010603       -2.3442785188       -1.7019819308
 O         -2.2818514301        0.3202446492        2.2038645905
 C         -0.6653282802       -1.3683888602        0.6565517498
 C          0.3005843599       -0.5110117400       -0.1259722597
 C          0.4551539400       -0.6522267793       -1.5009004598
 C          1.3642697001        0.1324440709       -2.1873917094
 C          2.1446637302        1.0603258805       -1.5202315989
 C          2.0008614001        1.2052705998       -0.1469835088
 C          1.0823863200        0.4223268396        0.5397190008
 H          0.9626226800        0.5506186690        1.6071564808
 N          2.8191202902        2.1217655393        0.5376492817
 S          4.4650192502        2.0181683993        0.2333830617
 O          5.1077654102        2.4818733986        1.4428468920
 O          4.7815440804        2.7496889498       -0.9674810279
 C          4.7668374800        0.2771204793       -0.0189852391
 C          4.5067308098       -0.5862004012        1.0271457804
 C          4.6768713097       -1.9467098711        0.8318986697
 C          5.1009635397       -2.4190159705       -0.4007814905
 C          5.3656958098       -1.5393453500       -1.4384002500
 C          5.1945526300       -0.1772345801       -1.2494257094
 H          5.3837709501        0.5404003303       -2.0309241190
 H          5.6980835798       -1.9095880496       -2.3947834102
 H          5.2262972095       -3.4795374405       -0.5516824910
 H          4.4732676095       -2.6339148115        1.6374609294
 H          4.1845720999       -0.1863570216        1.9753677706
 H          2.6354790702        2.1708291689        1.5292720617
 H          2.8591292803        1.6775645006       -2.0406841485
 H          1.4695406101        0.0180995914       -3.2554757294
 H         -0.1555714901       -1.3701503490       -2.0258757202
 H         -0.5749678703       -1.0858936908        1.7143139599
 C         -0.3037400104       -2.8349363602        0.5226154691
 C          0.9048143894       -3.3454790608        1.2464237789
 C         -0.4665061106       -3.7411158008        1.7039675686
 H         -0.7980035308       -4.7542007207        1.5327495481
 H         -0.8455418906       -3.3084864812        2.6186326888
 H          1.5191204894       -4.0873624906        0.7608292085
 H          1.4572305995       -2.6413415711        1.8501103292
 H         -0.5200795305       -3.2463977797       -0.4538794612
