  62
        -98.93736516
 C         -2.2818704795        0.5080939527        0.2613578232
 C         -3.5315998280        0.9836225222        0.7353598967
 C         -4.7083900551        0.6382981911       -0.0722891580
 C         -4.5384563901       -0.0458153091       -1.2179255042
 C         -5.6506332659       -0.5150996757       -2.1094778362
 C         -6.1119724792       -1.9273527248       -1.7228792185
 C         -6.3870710625       -2.1006516583       -0.2290349717
 H         -6.7349354914       -3.1250641630       -0.0793592453
 H         -5.4483999035       -1.9981787566        0.3206834667
 C         -7.4202221404       -1.1208553126        0.3448145081
 H         -8.0071952289       -0.6856109066       -0.4646826416
 H         -8.1102124037       -1.6751777260        0.9844163065
 C         -6.8258921868        0.0009012092        1.1986150405
 H         -7.6448212643        0.4974327683        1.7257659549
 H         -6.1626011539       -0.4264092225        1.9552129158
 C         -6.0518218462        1.0822426267        0.4341397017
 H         -5.8528423512        1.9032387280        1.1291916313
 H         -6.6651068675        1.4649872434       -0.3840094654
 H         -7.0139977048       -2.1632541164       -2.2903435164
 H         -5.3330374251       -2.6369149289       -2.0115874217
 H         -6.4832204310        0.1822418560       -2.0403163381
 H         -5.2841505265       -0.5304254604       -3.1371829594
 O         -3.3199593572       -0.4288763556       -1.6746139171
 C         -2.1605394127       -0.1732603753       -0.9507570215
 O         -1.1258469581       -0.5930049973       -1.5003876743
 O         -3.6554797125        1.6695831617        1.7851888196
 C         -1.0539289170        0.8202989314        1.0966926927
 C          0.0662289341        1.3380247352        0.2313523724
 C         -0.1084242140        2.5475950987       -0.4370802838
 C          0.8919677950        3.0640604205       -1.2366810942
 C          2.0965749489        2.3961530589       -1.3713133928
 C          2.2778385347        1.1852334948       -0.7148427063
 C          1.2654211217        0.6625220603        0.0778091480
 H          1.4271592626       -0.2886688591        0.5567306889
 N          3.4771846666        0.4689975440       -0.8508231514
 S          4.0462859748       -0.4088659745        0.4715651530
 O          3.4368491789       -1.7147781464        0.4755113923
 O          3.8969190823        0.3677074677        1.6824844854
 C          5.7717515468       -0.5532500281        0.0423349976
 C          6.6770712191        0.3521062252        0.5632231310
 C          8.0108593312        0.2511594670        0.2000260460
 C          8.4141330987       -0.7458441014       -0.6755283108
 C          7.4940670362       -1.6474706038       -1.1899449068
 C          6.1590916036       -1.5528942259       -0.8301166598
 H          5.4097605494       -2.2350119390       -1.1971078208
 H          7.8115535093       -2.4229968264       -1.8681984027
 H          9.4525624050       -0.8227508040       -0.9566109897
 H          8.7289325103        0.9484388945        0.6006342536
 H          6.3189463991        1.1045820316        1.2473055509
 H          4.2102745319        1.0013051621       -1.2984242845
 H          2.8827491315        2.8017297069       -1.9900102468
 H          0.7387659812        4.0004666890       -1.7520090104
 H         -1.0470908612        3.0737269570       -0.3246995868
 H         -1.3753078131        1.6438997027        1.7574492669
 C         -0.6187616500       -0.3176314533        2.0078837991
 C         -1.6171447001       -1.2751239953        2.5839966833
 C         -0.6259075535       -1.7488777166        1.5657907971
 H          0.1868965495       -2.3848310709        1.8867429351
 H         -0.9707622249       -1.9620455144        0.5658863670
 H         -1.4956339928       -1.5896184907        3.6095561222
 H         -2.6475081875       -1.1643066190        2.2784922255
 H          0.1964628111       -0.0202279902        2.6623650947
