  62
        -98.93401252
 C         -2.3996648599       -0.7740161193        0.2762393721
 C         -2.7306637098        0.5715210498       -0.0042328525
 C         -4.1334985399        0.9599439506        0.2343356860
 C         -4.9945109499        0.0436971322        0.7105849890
 C         -6.4646272400        0.2168605631        0.9759375083
 C         -7.2925023298       -0.2247100510       -0.2427712903
 C         -7.5234893597        0.8623168154       -1.2916354940
 H         -8.0022800396        0.3878549325       -2.1512983625
 H         -8.2221735597        1.6014296568       -0.8941391866
 C         -6.2633581096        1.5885832338       -1.7696925564
 H         -5.4605703096        0.8666490432       -1.9307127738
 H         -6.4861196595        2.0440372805       -2.7366129179
 C         -5.7939263697        2.6844244671       -0.8010995600
 H         -6.5812846698        2.8765666996       -0.0725266908
 H         -5.6485576196        3.6156599052       -1.3524763532
 C         -4.4744212398        2.3931953395       -0.0705982389
 H         -3.6354782597        2.7522143375       -0.6752064800
 H         -4.4498451599        2.9638032527        0.8638067292
 H         -8.2675685499       -0.5732561998        0.1035343907
 H         -6.7846609298       -1.0772752226       -0.7009827474
 H         -6.6885862000        1.2423985041        1.2535438848
 H         -6.7073791001       -0.4371396640        1.8160308405
 O         -4.6278685500       -1.2408373469        0.9781663734
 C         -3.3365129499       -1.6831870876        0.7652464451
 O         -3.1460779300       -2.8830839867        1.0515497092
 O         -1.8986183398        1.4117708583       -0.4373948352
 C         -0.9866509099       -1.2724664801        0.0447067740
 C          0.0132534901       -0.4761964874        0.8485623414
 C         -0.2864217501       -0.1233829529        2.1619823402
 C          0.6233520898        0.5748554897        2.9318607979
 C          1.8637410899        0.9134872080        2.4202174069
 C          2.1764861200        0.5594801535        1.1139892982
 C          1.2513704201       -0.1232278491        0.3356974504
 H          1.5239462002       -0.3817222126       -0.6739458487
 N          3.4225883001        0.8884465916        0.5567207872
 S          4.1407749102       -0.2332756419       -0.4832481789
 O          3.6724523004        0.0069535535       -1.8248690398
 O          3.9552781501       -1.5715286602        0.0297525256
 C          5.8545754202        0.2438327885       -0.3482212403
 C          6.3258543403        1.2820421159       -1.1294473338
 C          7.6502900303        1.6692014863       -1.0001531450
 C          8.4764563702        1.0167810893       -0.0969885226
 C          7.9897732001       -0.0244277480        0.6791032808
 C          6.6660821501       -0.4161021984        0.5555544220
 H          6.2466353800       -1.2261410865        1.1304484247
 H          8.6351969300       -0.5321238356        1.3776973526
 H          9.5070540902        1.3194969197        0.0003604165
 H          8.0332931204        2.4762443242       -1.6036641777
 H          5.6494824204        1.7533018735       -1.8234520055
 H          4.0781614700        1.2437929539        1.2390949961
 H          2.5786534898        1.4506542600        3.0248323752
 H          0.3697250097        0.8475549631        3.9454060170
 H         -1.2482237201       -0.4030685515        2.5710036510
 H         -0.9639107699       -2.3079901388        0.4185384175
 C         -0.6786980397       -1.2888001951       -1.4388209559
 C          0.2711547404       -2.2991972571       -2.0057224324
 C         -1.1976137496       -2.4151864380       -2.2791483222
 H         -1.5569672295       -2.1953805713       -3.2732113229
 H         -1.7517077496       -3.1936687163       -1.7745104296
 H          0.9274105205       -1.9948483998       -2.8079762133
 H          0.7213367703       -3.0026245847       -1.3207192199
 H         -0.6830335396       -0.2952681066       -1.8737340893
