  62
        -98.93736427
 C          1.6933026456        1.7787068862       -0.0301419192
 C          1.5453647237        0.4368480705       -0.4498680852
 C          2.6843344171       -0.4641006597       -0.1815968808
 C          3.7880343840        0.0307835724        0.4064072724
 C          5.0635428126       -0.6830581293        0.7782122333
 C          5.6354747743       -1.6639344918       -0.2569844318
 C          5.5074808094       -3.1310021017        0.1575816962
 H          6.2750530744       -3.7088454830       -0.3621922307
 H          5.7119166942       -3.2084855035        1.2275556227
 C          4.1569869119       -3.7768897405       -0.1468551685
 H          4.0646666305       -3.9282337372       -1.2244718766
 H          4.1506234227       -4.7638533122        0.3217534318
 C          2.9352002199       -2.9937827026        0.3379643286
 H          2.1083083004       -3.6989419482        0.4422212944
 H          3.1199702618       -2.5733290279        1.3257928010
 C          2.4914233000       -1.8868317633       -0.6295577536
 H          2.9798931576       -2.0210519169       -1.5988409564
 H          1.4165210194       -1.9678860357       -0.8185614650
 H          6.6970298432       -1.4400533462       -0.3747890573
 H          5.1630536576       -1.4998182129       -1.2241021849
 H          5.7859541168        0.1131359812        0.9724214151
 H          4.9075111154       -1.1977933051        1.7297153067
 O          3.8845295886        1.3369263485        0.7911450865
 C          2.8498446771        2.2324588433        0.6024593812
 O          3.0754905881        3.3824917252        1.0304984733
 H         -1.8313071554        1.8446557735       -1.2483872784
 C         -1.7821765903        1.7967978189       -0.1723645911
 C         -0.6551712773        2.2533249994        0.4901904417
 C         -0.6184284596        2.1677898947        1.8795323473
 C         -1.6821778841        1.6370318732        2.5836398553
 C         -2.8031363099        1.1714815590        1.9173959590
 C         -2.8457248573        1.2459001478        0.5319540724
 N         -3.9783906229        0.7750125640       -0.1601045628
 S         -4.4966771139       -0.7950112439        0.0957482771
 O         -5.4975998640       -1.0271973738       -0.9209647772
 O         -4.9351944210       -0.9299414327        1.4622127535
 C         -3.0849938802       -1.8440582812       -0.1969105910
 C         -2.1822484491       -2.0672813034        0.8227438336
 C         -1.0822903113       -2.8720158455        0.5760947100
 C         -0.9056714812       -3.4369010067       -0.6771288786
 C         -1.8169934050       -3.1959896320       -1.6929034904
 C         -2.9158373581       -2.3880181205       -1.4541184941
 H         -3.6533536943       -2.1819637288       -2.2133133605
 H         -1.6716680231       -3.6320819037       -2.6683014626
 H         -0.0526595948       -4.0705310198       -0.8655251002
 H         -0.3649814358       -3.0503818972        1.3616305447
 H         -2.3546435357       -1.6185512775        1.7873906222
 H         -3.9367328816        0.9530032076       -1.1537513767
 H         -3.6360001525        0.7407143338        2.4493290174
 H         -1.6400319407        1.5814426022        3.6611779755
 H          0.2643725579        2.5169039559        2.3984808411
 C          0.5627713123        2.7738409642       -0.2316564783
 H          0.8844054718        3.7033297384        0.2577177115
 C          0.3421852951        3.0482191312       -1.7040381330
 C         -0.3971949705        4.2810392166       -2.1275786877
 C          1.0807460496        4.1779540965       -2.3532965485
 H          1.4407703708        4.0454970078       -3.3625783293
 H          1.7385100289        4.7663655327       -1.7302993893
 H         -1.0515754321        4.2243505018       -2.9843369127
 H         -0.7467376342        4.9439450055       -1.3505532471
 H          0.2079400778        2.1447856384       -2.2873090344
 O          0.5137625705       -0.0000341585       -1.0236041650
