  62
        -98.93959669
 C         -2.4670826091       -0.2334395800        0.1959244498
 C         -3.5697549592       -0.1472904793        1.0784018796
 C         -4.7914367693        0.4499483300        0.5239277989
 C         -4.7896152492        0.8869118288       -0.7490398115
 C         -5.9805652492        1.4637068380       -1.4571161622
 C         -6.7813396690        0.3707823473       -2.1791451112
 C         -7.0985365489       -0.8430347320       -1.3056490001
 H         -7.6901909688       -1.5332554526       -1.9108730995
 H         -6.1665664589       -1.3542035916       -1.0538176096
 C         -7.8600572091       -0.5143627708       -0.0139673705
 H         -8.3161758192        0.4730720790       -0.0934973115
 H         -8.6699144790       -1.2365514108        0.1089758801
 C         -7.0097975192       -0.5783463295        1.2560657796
 H         -6.4779128591       -1.5323672695        1.2934267306
 H         -7.6817333693       -0.5445831788        2.1178308295
 C         -5.9862198394        0.5506419907        1.4302137887
 H         -6.4803139195        1.5171114406        1.3109620577
 H         -5.5941122395        0.4890757017        2.4497891388
 H         -7.7106997590        0.8101577268       -2.5460796617
 H         -6.2025494788        0.0305155765       -3.0408819909
 H         -6.6136780093        1.9753504986       -0.7347309427
 H         -5.6255654592        2.1876110274       -2.1925334328
 O         -3.7032320591        0.8085935282       -1.5593669213
 C         -2.5165957191        0.2449895187       -1.1133247807
 O         -1.6037714190        0.2298179681       -1.9602488406
 O         -3.5317905593       -0.5471930282        2.2738552500
 C         -1.1747042891       -0.8502119594        0.6968117205
 C         -0.0485124492        0.1524070707        0.6281361397
 C         -0.2623784894        1.4407721511        1.1115057084
 C          0.7444357705        2.3857579512        1.0784091276
 C          1.9907882706        2.0681017208        0.5677516981
 C          2.2216480107        0.7825081304        0.1001512793
 C          1.2073654809       -0.1680299197        0.1380169501
 H          1.4031465910       -1.1628702600       -0.2308895190
 N          3.4843687908        0.4512574901       -0.4211740003
 S          4.8393146007        1.0256606910        0.4088728093
 O          4.6589477306        0.8496557723        1.8324361295
 O          5.1083883406        2.3725901706       -0.0290576519
 C          6.1047629209       -0.0722664594       -0.1986502795
 C          6.4600282209       -1.1750661087        0.5548310716
 C          7.4292921511       -2.0366783390        0.0657944725
 C          8.0208866912       -1.7838386301       -1.1627312077
 C          7.6530776211       -0.6730816208       -1.9077259388
 C          6.6855513610        0.1933042495       -1.4243278197
 H          6.3747863309        1.0728136190       -1.9636516905
 H          8.1172403312       -0.4791466817       -2.8612277689
 H          8.7757387813       -2.4552387404       -1.5405524270
 H          7.7192819211       -2.8994093685        0.6436589633
 H          5.9799811208       -1.3268375078        1.5083220817
 H          3.5674800810       -0.5343062001       -0.6296831793
 H          2.7864818105        2.7950805909        0.5359738275
 H          0.5593465403        3.3816552515        1.4531607467
 H         -1.2343419595        1.6934373114        1.5136166581
 H         -1.3551430192       -1.0814076384        1.7577657007
 C         -0.8905662589       -2.1418199501       -0.0414109183
 C         -0.1396122789       -3.2516266594        0.6303860828
 C         -1.6106704688       -3.3866266498        0.3793537628
 H         -1.9448978487       -4.0725162305       -0.3845540266
 H         -2.2838881289       -3.3084791390        1.2205962627
 H          0.5351172713       -3.8512584798        0.0378577935
 H          0.1873396810       -3.0904773584        1.6466244327
 H         -0.7391726888       -1.9867157810       -1.1039360184
