  62
        -98.94337623
 C         -2.2860726600       -0.6372403498        0.0781388104
 C         -3.1554402401       -0.1401253092        1.0863288701
 C         -4.0498485902        0.9573357204        0.7001788292
 C         -3.9907290803        1.4387193695       -0.5544426711
 C         -4.8792164804        2.5153184290       -1.1049752219
 C         -6.1385924203        1.9187782984       -1.7491398815
 C         -6.8575564402        0.8965053089       -0.8687088608
 H         -7.7454145401        0.5665098184       -1.4124524505
 H         -6.2157129401        0.0216831991       -0.7416177001
 C         -7.2704691603        1.4261800299        0.5117171988
 H         -8.2956849902        1.1100611599        0.7154843791
 H         -7.2628548704        2.5167137499        0.5075240381
 C         -6.4093391902        0.9182361108        1.6697044592
 H         -6.3381967601       -0.1713464892        1.6228351700
 H         -6.9136929503        1.1729088614        2.6055989690
 C         -4.9883221003        1.4908527911        1.7456664588
 H         -5.0283806005        2.5812574210        1.7063564381
 H         -4.5622321703        1.1965081318        2.7091100391
 H         -6.8207635604        2.7349119681       -1.9939591321
 H         -5.8505726202        1.4255957478       -2.6804882411
 H         -5.1563650205        3.1957163496       -0.3021495924
 H         -4.3215170305        3.0685676386       -1.8624652723
 O         -3.1343245302        0.9548426990       -1.4870422807
 C         -2.2690752600       -0.0928418807       -1.2058335400
 O         -1.5615793900       -0.4187741113       -2.1814632997
 H          0.4192818400       -0.6851953503       -1.2276696495
 C          0.8191893200       -0.7772697596       -0.2286968494
 C          0.0237973601       -1.3115573389        0.7749536610
 C          0.5501782001       -1.4095152180        2.0577579610
 C          1.8383803800       -0.9804345276        2.3252513508
 C          2.6251460800       -0.4411803982        1.3233284104
 C          2.1080790200       -0.3372029392        0.0385152103
 N          2.8826086699        0.2368278602       -0.9831136801
 S          4.4649171700       -0.2777767598       -1.1890885597
 O          4.7823758500        0.0090031193       -2.5708713399
 O          4.6391506302       -1.6464531694       -0.7606428587
 C          5.4045727398        0.8137207011       -0.1416787005
 C          5.2554721596        2.1748434810       -0.3224883915
 C          5.9846112095        3.0399662516        0.4774828979
 C          6.8481941196        2.5324141125        1.4369864483
 C          6.9894902997        1.1633480226        1.6036924493
 C          6.2619678399        0.2924366419        0.8073049999
 H          6.3352653100       -0.7790778480        0.9046608807
 H          7.6616052798        0.7709501632        2.3498424596
 H          7.4141705495        3.2084130130        2.0583236678
 H          5.8768925894        4.1052445815        0.3507750772
 H          4.5761119796        2.5281497803       -1.0804857017
 H          2.3996363799        0.2944671295       -1.8681397202
 H          3.6282411399       -0.1031862179        1.5260131002
 H          2.2337772000       -1.0632278368        3.3260829508
 H         -0.0630148799       -1.8152084575        2.8491963913
 C         -1.3779623198       -1.7891699494        0.4767869813
 H         -1.8029915898       -2.1736927487        1.4137150115
 C         -1.3610017997       -2.9169238601       -0.5369910679
 C         -0.9483463295       -4.2870281297       -0.0933306469
 C         -2.3805513195       -4.0097975602       -0.4372194371
 H         -2.7838775594       -4.4222235909       -1.3499223968
 H         -3.0964732895       -3.9533701097        0.3698454428
 H         -0.6935646795       -4.4197211989        0.9472025932
 H         -0.3630289694       -4.8918875801       -0.7688826465
 H         -1.0699275897       -2.6014118408       -1.5305358981
 O         -3.1845610700       -0.6026896283        2.2576090304
