  62
        -98.94259681
 C         -1.8765033297       -1.3206842245        0.4893738871
 C         -1.5642838135       -0.1091245920       -0.1783045959
 C         -2.5003086603        1.0033402029        0.0482137146
 C         -3.5424407920        0.8532766777        0.8837823756
 C         -4.5611471669        1.9034129163        1.2341704169
 C         -5.7153585018        2.0138628230        0.2286877364
 C         -5.3491534644        2.6504409876       -1.1125871770
 H         -6.2852184262        2.8601682226       -1.6340161379
 H         -4.8538629825        3.6059847742       -0.9371253100
 C         -4.4702518158        1.7699040157       -2.0117929231
 H         -4.5143523386        0.7353367493       -1.6631836552
 H         -4.8659521073        1.7797766869       -3.0299797775
 C         -3.0071941880        2.2058870003       -2.0907450489
 H         -2.9438035749        3.1902234791       -2.5599451710
 H         -2.4730219630        1.4965850403       -2.7285344857
 C         -2.2874991589        2.2632526306       -0.7364533426
 H         -1.2162220073        2.3628184848       -0.9279570664
 H         -2.6261830193        3.1292068379       -0.1680960363
 H         -6.1280183578        1.0166280957        0.0583738786
 H         -6.4960434896        2.6204284951        0.6934864764
 H         -4.9761254375        1.6215728203        2.2043422638
 H         -4.0708861763        2.8721181546        1.3341394267
 O         -3.7806248545       -0.3099877962        1.5449426459
 C         -2.9731030580       -1.4176113702        1.3543035027
 O         -3.3249285230       -2.4185117668        2.0097037555
 H          0.9354724573       -1.9787424605       -1.4256989380
 C          1.2841764583       -1.9268348279       -0.4064787905
 C          0.4178635220       -2.2281428510        0.6312532106
 C          0.8802016295       -2.1296626850        1.9395840090
 C          2.1837088117       -1.7473574849        2.2000651867
 C          3.0403663142       -1.4216167057        1.1628798740
 C          2.5766963980       -1.4930093743       -0.1443733967
 N          3.4095107244       -1.1008599637       -1.2044393076
 S          4.4147275063        0.2137973738       -0.9850189127
 O          4.5842360473        0.7863279359       -2.3035049640
 O          5.6323318124       -0.2227206273       -0.3429240857
 C          3.5849125382        1.3798221015        0.0887588280
 C          2.2304869470        1.6180987012       -0.0347356964
 C          1.6416274268        2.5511946677        0.8050531546
 C          2.4055911050        3.2359280120        1.7363587183
 C          3.7656940360        2.9903922050        1.8416264173
 C          4.3601355484        2.0526878865        1.0135076390
 H          5.4112077870        1.8196322381        1.0709197157
 H          4.3616442880        3.5213038222        2.5664105305
 H          1.9367180166        3.9604580550        2.3834267884
 H          0.5800702639        2.7274667474        0.7282004407
 H          1.6277580314        1.0745196915       -0.7456641717
 H          2.9335844422       -1.0492867055       -2.0934218630
 H          4.0555657426       -1.1082897790        1.3477966431
 H          2.5337034343       -1.6879184718        3.2192872473
 H          0.2018686354       -2.3501680861        2.7521877355
 C         -1.0247754735       -2.5755202030        0.3683425943
 H         -1.3717542222       -3.2325924766        1.1807752120
 C         -1.2154666657       -3.3496112976       -0.9285318720
 C         -2.5946409123       -3.5876054922       -1.4657122625
 C         -1.6384646018       -2.7130294485       -2.2166309794
 H         -1.2121902035       -3.0918007190       -3.1345104247
 H         -1.8142312351       -1.6492563504       -2.2267770207
 H         -2.8337164379       -4.5601881092       -1.8684987111
 H         -3.4151961041       -3.1171233257       -0.9430692745
 H         -0.5179614462       -4.1784693975       -1.0050331508
 O         -0.5727634839        0.0641461631       -0.9323010426
