  62
        -98.93717869
 C         -1.9566187303       -1.3747406524       -0.2471652252
 C         -1.8381945986       -0.0389887527        0.2029472502
 C         -3.0568855637        0.5662949949        0.7674457964
 C         -4.1874380684       -0.1575093364        0.8292538854
 C         -5.5294868284        0.2515960100        1.3822236874
 C         -6.0414032577        1.6549857495        1.0256540151
 C         -5.6052371563        2.1790007988       -0.3506980562
 H         -6.4864234167        2.5313999154       -0.8901815607
 H         -5.1665778688        1.3704704217       -0.9379373333
 C         -4.6141013355        3.3422926791       -0.2609812295
 H         -4.9469721164        4.0244003363        0.5244760101
 H         -4.6359178321        3.8947850951       -1.2034213077
 C         -3.1605185140        2.9491711507        0.0007244950
 H         -2.5906671476        3.8659501023        0.1702915847
 H         -2.7419254358        2.4681107537       -0.8872229257
 C         -2.9383133369        2.0021505180        1.1909456181
 H         -3.6112539083        2.2366666438        2.0121095286
 H         -1.9093185212        2.1302507596        1.5386587917
 H         -5.7246501044        2.3629050555        1.7904920380
 H         -7.1310430379        1.6133973308        1.0701023381
 H         -5.4961449689        0.1488081926        2.4708248685
 H         -6.2305445945       -0.4995831817        1.0105063641
 O         -4.2513279920       -1.4487837407        0.3948678665
 C         -3.1496954695       -2.0869428546       -0.1500440619
 O         -3.3560622056       -3.2672045273       -0.4996579573
 O         -0.7684596407        0.6175004623        0.1448981601
 C         -0.7562576808       -2.0691827349       -0.8633352471
 C          0.4245596655       -2.0058559472        0.0744499239
 C          0.2346913345       -2.3020450736        1.4217403943
 C          1.2841851853       -2.2367567486        2.3177914060
 C          2.5531170233       -1.8859360977        1.8900282227
 C          2.7571135419       -1.6013577910        0.5473567684
 C          1.6996693760       -1.6688009780       -0.3530321454
 H          1.8788081691       -1.4432953845       -1.3929712878
 N          4.0526856521       -1.2560353047        0.1077575663
 S          4.7292600686        0.1759844858        0.6521961605
 O          6.0757632425        0.1936672418        0.1268309784
 O          4.6000714044        0.2398317140        2.0851137541
 C          3.7778383660        1.4740265817       -0.1197583605
 C          4.3683753558        2.2478554964       -1.1002096924
 C          3.6133855221        3.2242524768       -1.7293487426
 C          2.2817154971        3.3977673206       -1.3819255424
 C          1.7020862944        2.6088550250       -0.4005034629
 C          2.4561848138        1.6404354246        0.2429685615
 H          2.0169938223        1.0156746692        1.0036910489
 H          0.6603752390        2.7094629627       -0.1419115661
 H          1.6901748421        4.1502443115       -1.8797870172
 H          4.0614758825        3.8406750395       -2.4922495602
 H          5.4032465158        2.0704435721       -1.3450036929
 H          4.1623191635       -1.3092720887       -0.8956920512
 H          3.3783444020       -1.8099383892        2.5786311795
 H          1.1151016091       -2.4619549024        3.3602595846
 H         -0.7559451554       -2.5745799518        1.7609382593
 H         -1.0421494330       -3.1242691878       -0.9853736400
 C         -0.4732257772       -1.4787223169       -2.2302340842
 C          0.1344115419       -2.3205865379       -3.3110824177
 C         -1.3074731695       -1.9206485059       -3.3932916691
 H         -1.5994554722       -1.1861979051       -4.1288699534
 H         -2.0612379001       -2.6712707316       -3.2039069031
 H          0.8303535200       -1.8598769431       -3.9963174466
 H          0.3607246787       -3.3499879435       -3.0771186846
 H         -0.1996053686       -0.4304964364       -2.1805636201
