  62
        -98.94558575
 C         -2.5121043937       -0.1146729496       -0.2028087726
 C         -2.6525893694        1.0069199984        0.6461012820
 C         -2.2058174504        2.2891090547        0.0937728984
 C         -1.6933617600        2.3358544104       -1.1495550173
 C         -1.1880255441        3.5666561579       -1.8525673150
 C          0.2632515009        3.9186416889       -1.4983565889
 C          0.4594130399        4.5263019878       -0.1088570963
 H          1.4679847390        4.9434350957       -0.0793483206
 H         -0.2409500161        5.3509698616        0.0309400694
 C          0.3116284944        3.5208299311        1.0416027914
 H          0.4059674663        2.5031933846        0.6542926330
 H          1.1303924426        3.6518064224        1.7537977914
 C         -0.9939830142        3.6387052138        1.8282721631
 H         -1.0257963767        4.6020125972        2.3435458336
 H         -1.0019923872        2.8507487401        2.5863986957
 C         -2.2644042446        3.4974489527        0.9795219407
 H         -3.1143547581        3.3724835920        1.6555001905
 H         -2.4194270764        4.3972757017        0.3842803300
 H          0.8697423524        3.0131540035       -1.5825801952
 H          0.6191777978        4.6354288298       -2.2423399708
 H         -1.2417684832        3.3571292740       -2.9230256816
 H         -1.8371877982        4.4138544749       -1.6291688942
 O         -1.5909757856        1.2378093325       -1.9422105212
 C         -1.9500548788       -0.0158955957       -1.4759597417
 O         -1.7500616186       -0.9413525540       -2.2868907939
 O         -3.1285739338        0.9384470696        1.8139142743
 C         -2.8613256153       -1.4938707021        0.3290809270
 C         -1.6033783861       -2.3273294654        0.3412113248
 C         -1.5159172410       -3.6121772344       -0.1775619915
 C         -0.3040703622       -4.2827489570       -0.1863742409
 C          0.8440748215       -3.6811606707        0.2941804856
 C          0.7616085136       -2.4013319919        0.8325470732
 C         -0.4606941559       -1.7539942314        0.8852805323
 H         -0.5094439403       -0.7654708477        1.3222869534
 N          1.8883655045       -1.7361995547        1.3372477836
 S          2.2151250897       -0.1592216054        0.8332391701
 O          2.3585631711        0.6557422632        2.0167488397
 O          1.2409807156        0.2709289532       -0.1370605678
 C          3.8100098792       -0.3475145949        0.0549565436
 C          3.8450653585       -0.8199839001       -1.2431566010
 C          5.0749268932       -1.0140816582       -1.8518209041
 C          6.2414418355       -0.7369538917       -1.1538145435
 C          6.1893026963       -0.2632542111        0.1484460633
 C          4.9623869664       -0.0671242424        0.7632708720
 H          4.8693547734        0.3044139207        1.7706822281
 H          7.0979843273       -0.0462699386        0.6863239830
 H          7.1967557713       -0.8895287786       -1.6304522160
 H          5.1175056832       -1.3797899340       -2.8651729669
 H          2.9109690672       -1.0139157041       -1.7480882674
 H          2.7258219306       -2.3003772704        1.3626187386
 H          1.7940829698       -4.1927453669        0.2564336668
 H         -0.2502833359       -5.2799775464       -0.5963243754
 H         -2.3935730121       -4.0844615711       -0.5875824562
 H         -3.1865299274       -1.3355310220        1.3685049444
 C         -3.9993620607       -2.1122964367       -0.4533763185
 C         -4.9033888177       -3.1157101110        0.1968090570
 C         -5.4071216717       -1.7369762545       -0.1034421486
 H         -6.1200495575       -1.6085623078       -0.9038737889
 H         -5.5457514743       -1.0500233810        0.7187028645
 H         -5.2756835865       -3.9359417094       -0.3980779479
 H         -4.7078254803       -3.3695166570        1.2276520556
 H         -3.7605386513       -2.2376067123       -1.5034433521
