  62
        -98.93715033
 C          1.3978271222        1.4685713712       -0.2070711742
 C          2.7368970695        1.4433221441        0.2581860131
 C          3.5475165922        0.2520243513       -0.0601103985
 C          2.9724976596       -0.7527695853       -0.7461066127
 C          3.5673744990       -2.0806064014       -1.1331146602
 C          3.6478245178       -3.0590499914        0.0494885723
 C          4.1607643017       -2.4500261658        1.3516860725
 H          3.5158598436       -1.6169349291        1.6372238246
 H          4.0722862893       -3.2106757132        2.1319525876
 C          5.6132985201       -1.9800142709        1.3230598957
 H          5.8704220010       -1.6596421516        2.3360680856
 H          6.2587019287       -2.8241142198        1.0695457606
 C          5.9260119791       -0.8255795836        0.3682677003
 H          6.9145948730       -0.4410810093        0.6362669837
 H          6.0003282346       -1.1735394240       -0.6586273395
 C          4.9624345491        0.3538747664        0.4565606331
 H          5.4084063334        1.2072688373       -0.0691427762
 H          4.8809798785        0.6729891320        1.5019402718
 H          2.6442002242       -3.4466907983        0.2393408270
 H          4.2848644319       -3.8971218217       -0.2383745030
 H          4.5456536733       -1.9360959011       -1.5817784318
 H          2.9125215935       -2.5065740249       -1.8962213269
 O          1.6791329530       -0.6934179901       -1.1647528473
 C          0.8586647802        0.3945521760       -0.9198882361
 O         -0.2843411575        0.2680719475       -1.3938616977
 O          3.2457063680        2.3826164177        0.9279429194
 C          0.5484051593        2.6649432731        0.1926656469
 C         -0.6808465822        2.1457852296        0.8902811182
 C         -0.6252266359        1.8234524465        2.2422953003
 C         -1.7068096682        1.2359222452        2.8728531953
 C         -2.8499628588        0.9237530144        2.1576985830
 C         -2.9053391139        1.2257856628        0.8033052012
 C         -1.8429038713        1.8705932020        0.1861256235
 H         -1.9000115458        2.1099432923       -0.8638186082
 N         -4.0395855644        0.8529641301        0.0514113778
 S         -4.4309820204       -0.7774287566        0.0433696884
 O         -5.3579289519       -0.9370815213       -1.0552656222
 O         -4.9338958712       -1.1369194868        1.3472398349
 C         -2.9267701039       -1.6765890541       -0.2887394013
 C         -2.6146301905       -1.9832306309       -1.5968154185
 C         -1.4384003797       -2.6621379424       -1.8645401083
 C         -0.5915385309       -3.0099486602       -0.8252334198
 C         -0.9155813181       -2.6891679006        0.4828448983
 C         -2.0958884095       -2.0189286430        0.7584060458
 H         -2.3823383526       -1.7611059911        1.7649073724
 H         -0.2495451988       -2.9517304655        1.2902495143
 H          0.3314046002       -3.5267797765       -1.0381098397
 H         -1.1780000113       -2.9047466723       -2.8824297900
 H         -3.2979367938       -1.6917979137       -2.3784151515
 H         -3.9897635659        1.1770528990       -0.9047753977
 H         -3.6891847960        0.4304536647        2.6212879387
 H         -1.6553827052        1.0033556172        3.9258871730
 H          0.2826852846        2.0282213969        2.7925992122
 H          1.1655553682        3.2033919075        0.9290856011
 C          0.2356698826        3.6565741144       -0.9166643725
 C          1.3055128131        4.0646944426       -1.8843076864
 C          0.1205466443        3.2833761791       -2.3627117535
 H         -0.6210424282        3.7957228213       -2.9588889636
 H          0.2591135402        2.2499421413       -2.6365108669
 H          1.3870216052        5.1050375926       -2.1608047889
 H          2.2550235481        3.5542785545       -1.8118858128
 H         -0.4271317164        4.4439057299       -0.5690770558
