  62
        -98.94303307
 C          2.4403763824        0.3133215065       -0.2835294608
 C          2.1503867800        1.4951326717       -1.0091729024
 C          1.5495741247        2.5938655667       -0.2483229916
 C          1.3025841617        2.4352094049        1.0642682531
 C          0.6558537584        3.4469855191        1.9705675113
 C         -0.8779776898        3.4167162753        1.9058461151
 C         -1.4854117534        4.0338241388        0.6448281088
 H         -1.0534068742        5.0218453667        0.4792444724
 H         -2.5514496929        4.1698078926        0.8376883962
 C         -1.3209562532        3.1745891977       -0.6164960988
 H         -2.2712031079        3.1382525532       -1.1549892586
 H         -1.0798277506        2.1505724303       -0.3211004497
 C         -0.2630820224        3.6809550155       -1.5978131515
 H         -0.5702241673        4.6489669730       -2.0008766222
 H         -0.1993760473        2.9737219360       -2.4286998175
 C          1.1409239717        3.8270331422       -0.9973786024
 H          1.1827948114        4.6981410931       -0.3439133549
 H          1.8505404294        3.9680016355       -1.8167722498
 H         -1.2545418930        3.9631545483        2.7741515825
 H         -1.2057260053        2.3770583509        1.9940285317
 H          1.0167016028        4.4479035734        1.7310116036
 H          0.9641471049        3.1977632835        2.9882994981
 O          1.6311802892        1.3027050665        1.7366205492
 C          2.1449099700        0.1966620941        1.0770274588
 O          2.3122248243       -0.7943519714        1.8152052994
 O          2.3673695205        1.6174561195       -2.2459686742
 C          2.9142095954       -0.8963236857       -1.0733167740
 C          2.0372644227       -2.0702163800       -0.7137361757
 C          2.5113188197       -3.3186941559       -0.3380699563
 C          1.6280273215       -4.3104888150        0.0551258542
 C          0.2697624259       -4.0647206933        0.1211283911
 C         -0.2150989732       -2.8184777930       -0.2613091853
 C          0.6631684557       -1.8573806329       -0.7266634064
 H          0.2810705099       -0.8955284828       -1.0349942512
 N         -1.5913399761       -2.5112499888       -0.1877342334
 S         -2.0814867564       -1.1900680599        0.7508173595
 O         -1.1504986152       -0.1004635551        0.6377230711
 O         -2.3751344697       -1.6612935682        2.0907296065
 C         -3.6059958442       -0.7703439204       -0.0702958860
 C         -3.5351082350       -0.0467472669       -1.2443906285
 C         -4.7084829313        0.2647488243       -1.9121037527
 C         -5.9269135268       -0.1543125682       -1.3984341556
 C         -5.9821798013       -0.8808827535       -0.2189976833
 C         -4.8113337046       -1.1944246522        0.4535898362
 H         -4.8060975335       -1.7480936949        1.3784129992
 H         -6.9309364771       -1.2032490051        0.1786943415
 H         -6.8384770795        0.0893263470       -1.9208350569
 H         -4.6674875465        0.8311715666       -2.8285964845
 H         -2.5670671220        0.2638611457       -1.6036946404
 H         -2.1363806521       -3.3090300225        0.1153165021
 H         -0.4118897555       -4.8233708721        0.4768836475
 H          2.0076680995       -5.2782432014        0.3468605032
 H          3.5717434569       -3.5103975087       -0.3229972620
 H          2.7137323842       -0.6264648752       -2.1245860612
 C          4.4036266984       -1.1872182405       -0.9803629865
 C          5.3757296279       -0.1182496117       -0.5820145350
 C          5.1199228698       -1.2763287084        0.3326903670
 H          5.8951788807       -2.0204873046        0.4439636685
 H          4.5393779799       -1.1098948325        1.2262576413
 H          6.3221839491       -0.0666117570       -1.0990947648
 H          4.9725753374        0.8460519100       -0.3077028915
 H          4.7352405957       -1.8653929763       -1.7608257437
