  62
        -98.93801701
 C         -2.3003299906       -0.6931304653       -0.3334182890
 C         -3.6370549475       -1.1367850352       -0.1551604512
 C         -4.5252828898       -0.2401083833        0.5913346525
 C         -4.0338395355        0.8957051763        1.1176342799
 C         -4.8049916330        1.9025900460        1.9272097301
 C         -5.5866020830        2.9169253062        1.0806786994
 C         -6.8265823333        2.3617251258        0.3784518173
 H         -7.4544142120        1.8465822654        1.1060792200
 H         -7.3937551125        3.2173970733        0.0067837668
 C         -6.5221225649        1.4234076298       -0.7977745678
 H         -5.4829910355        1.5552257487       -1.1084452422
 H         -7.1474491175        1.6941283593       -1.6514630994
 C         -6.7681757200       -0.0571817305       -0.5070406287
 H         -7.8320817276       -0.2229851380       -0.3242492786
 H         -6.4854648605       -0.6327079887       -1.3923577369
 C         -5.9758914183       -0.6048655469        0.6873344360
 H         -6.3999342895       -0.2371269971        1.6214347207
 H         -6.0456639698       -1.6953297744        0.6756345836
 H         -4.9098375415        3.3478378130        0.3391665811
 H         -5.9033345626        3.7215720812        1.7482311632
 H         -5.4888110690        1.3846649403        2.6004359992
 H         -4.0716119007        2.4458195739        2.5271934791
 O         -2.7308362463        1.2554661650        0.9838469959
 C         -1.8350204005        0.4899957808        0.2436399559
 O         -0.6911831832        0.9794247483        0.1908287568
 H          1.1265966187       -0.5225303226       -1.4744172716
 C          1.0866844681       -1.2081103788       -0.6423497129
 C         -0.1059988969       -1.8406573871       -0.3340777510
 C         -0.1464539978       -2.6894160517        0.7684189391
 C          0.9815788705       -2.8993707293        1.5381147542
 C          2.1729670569       -2.2676029745        1.2263107308
 C          2.2202956783       -1.4106121394        0.1357546727
 N          3.4257594213       -0.7696361686       -0.2078908790
 S          4.4256105364       -0.2095347149        1.0309851025
 O          5.1395773804       -1.3350398446        1.5827599567
 O          3.6776181170        0.5861062180        1.9787279075
 C          5.5482642048        0.8133131397        0.0989856529
 C          5.2553606760        2.1534732417       -0.0688516534
 C          6.1156106932        2.9380359282       -0.8209619755
 C          7.2452919014        2.3713053080       -1.3921571994
 C          7.5253195324        1.0245323670       -1.2151867979
 C          6.6702438245        0.2347513536       -0.4631610317
 H          6.8497085338       -0.8135656915       -0.2911493651
 H          8.4055320414        0.5886779392       -1.6594772773
 H          7.9122494687        2.9848447119       -1.9769805841
 H          5.9013035547        3.9857844239       -0.9581899018
 H          4.3694464205        2.5533576653        0.3991053718
 H          3.2734520370       -0.0392971732       -0.8905975076
 H          3.0570446604       -2.4137390265        1.8255305326
 H          0.9358267616       -3.5580130113        2.3927529248
 H         -1.0796882150       -3.1738786078        1.0220973640
 C         -1.3698042051       -1.6014404220       -1.1186496951
 H         -1.9159773834       -2.5570622610       -1.1786761090
 C         -1.1138703984       -1.1625696723       -2.5525657132
 C         -2.2106565112       -0.5390385837       -3.3618146399
 C         -1.0154198642        0.2734792000       -2.9682994618
 H         -0.3003370965        0.5324547335       -3.7358509802
 H         -1.1310516545        1.0298918492       -2.2081793156
 H         -2.3205287374       -0.8305831699       -4.3953530526
 H         -3.1474408050       -0.3446718779       -2.8598492478
 H         -0.4674353922       -1.8623373497       -3.0738207536
 O         -4.0669927661       -2.2345775374       -0.5983429603
