  62
        -98.94048386
 C         -2.3236989075       -0.3434809349        0.1937355038
 C         -3.5381603933       -0.9038999154        0.6569881391
 C         -4.7027832274       -0.0091881894        0.6498642587
 C         -4.5503718258        1.2639253553        0.2413800963
 C         -5.6606080294        2.2681786654        0.1350147487
 C         -6.2927555289        2.2501002249       -1.2637627880
 C         -6.6614787345        0.8507515498       -1.7565668946
 H         -7.1270777549        0.9639875178       -2.7380114165
 H         -5.7466406476        0.2711474876       -1.9004315490
 C         -7.6089613516        0.0793897921       -0.8271475170
 H         -8.1030806068        0.7716683840       -0.1446136396
 H         -8.3871229952       -0.3902095893       -1.4324886901
 C         -6.9392651658       -1.0352255527       -0.0211725395
 H         -6.3639166040       -1.6777022266       -0.6925630477
 H         -7.7245917355       -1.6499562034        0.4266447695
 C         -6.0153558118       -0.5755432594        1.1137771338
 H         -5.7659991847       -1.4541227840        1.7159002626
 H         -6.5407915276        0.1393068155        1.7500885906
 H         -5.5819651997        2.6852651172       -1.9700760917
 H         -7.1846145927        2.8791201820       -1.2476786944
 H         -6.4144590935        2.0500943148        0.8888586754
 H         -5.2457569449        3.2596289634        0.3238325687
 O         -3.3616323315        1.7739816874       -0.1710280196
 C         -2.2210006783        0.9854820032       -0.2169833679
 O         -1.2061237909        1.5774666605       -0.6302215724
 O         -3.6413169551       -2.0934978647        1.0614245474
 C         -1.0833450961       -1.2175615486        0.1517190381
 C          0.0041594888       -0.6099466706        1.0018808808
 C         -0.2650574332       -0.3536350175        2.3446766250
 C          0.6957649794        0.2063220777        3.1630391841
 C          1.9486422724        0.5160138966        2.6629699598
 C          2.2256948368        0.2700296422        1.3237190494
 C          1.2579341693       -0.2959812114        0.5043478475
 H          1.5015155563       -0.4772143720       -0.5286859855
 N          3.4747761701        0.6122422099        0.7826833327
 S          4.1162198764       -0.3029523877       -0.4787923139
 O          3.5150375956        0.1099670895       -1.7217549679
 O          4.0321608015       -1.7120037527       -0.1644031719
 C          5.8137576425        0.2416362973       -0.4264167372
 C          6.7681082320       -0.5499369967        0.1838868700
 C          8.0779373952       -0.0993490922        0.2378153760
 C          8.4085129148        1.1294407478       -0.3132210158
 C          7.4396112305        1.9128632088       -0.9230351870
 C          6.1287432003        1.4676151899       -0.9820297721
 H          5.3441266416        2.0364908955       -1.4534613145
 H          7.7007055470        2.8665514481       -1.3527330739
 H          9.4282353335        1.4780686441       -0.2701174776
 H          8.8340760397       -0.7071981974        0.7079374265
 H          6.4658281574       -1.5010609433        0.5917093555
 H          4.1690198706        0.8185298697        1.4875419239
 H          2.7004645564        0.9549856916        3.3010641199
 H          0.4714629609        0.3989068871        4.2015197776
 H         -1.2439926169       -0.5983525271        2.7346282993
 H         -1.3820465836       -2.1722010059        0.6105468746
 C         -0.6640204387       -1.4789455240       -1.2789523911
 C          0.1487705299       -2.6931511792       -1.6112628184
 C         -1.2879437320       -2.6150621668       -2.0300788666
 H         -1.5141157174       -2.4788120729       -3.0769890324
 H         -2.0078262286       -3.2228625949       -1.5015078657
 H          0.9172378882       -2.6065201890       -2.3651110513
 H          0.4095007433       -3.3558307815       -0.7996538202
 H         -0.4618873793       -0.5665911068       -1.8303403038
