  62
        -98.93844172
 C         -1.7166631574       -0.7576471233        0.1534811734
 C         -2.9173888083       -1.2052925111        0.7507267669
 C         -4.1634831644       -0.9077953829        0.0235925328
 C         -4.0935055600       -0.2461795960       -1.1446929700
 C         -5.2381492900        0.2034235704       -2.0102454242
 C         -5.6415171515        1.6484119958       -1.6705157193
 C         -6.6631141968        1.7838277047       -0.5419586120
 H         -6.7600286261        2.8487004494       -0.3179969293
 H         -7.6354507474        1.4337315226       -0.8948207308
 C         -6.3144005292        1.0392738115        0.7494519445
 H         -5.2562381837        1.1779527827        0.9787743391
 H         -6.8833620790        1.4948166334        1.5622991633
 C         -6.6452532083       -0.4594425648        0.6903998734
 H         -7.2393000568       -0.7327488328        1.5649429883
 H         -7.2715940442       -0.6512718558       -0.1805805319
 C         -5.4303248651       -1.3989009829        0.6699592224
 H         -5.7184395867       -2.3440597971        0.1979395678
 H         -5.1398906723       -1.6398626107        1.6974217334
 H         -4.7320448542        2.1979617080       -1.4133466573
 H         -6.0615315918        2.1144657830       -2.5642406740
 H         -6.0822181350       -0.4733018109       -1.9161957947
 H         -4.8776571263        0.1765810918       -3.0406716696
 O         -2.9136776468        0.1637196230       -1.6880977730
 C         -1.7016449703       -0.0718815717       -1.0603717570
 O         -0.7099986040        0.3649866948       -1.6745120000
 O         -2.9488975374       -1.8191608711        1.8517264329
 C         -0.4021425147       -1.0236150989        0.8640877774
 C          0.2755240345        0.2793136035        1.2093426465
 C         -0.4457818079        1.2423532125        1.9118421961
 C          0.1353697566        2.4442418827        2.2633844915
 C          1.4493862126        2.7136422875        1.9208120059
 C          2.1811291087        1.7592037448        1.2266262039
 C          1.5949278333        0.5479404215        0.8818008310
 H          2.1793412551       -0.1777330650        0.3429706080
 N          3.5298544966        1.9820092931        0.9084735997
 S          4.1161143974        1.5800819255       -0.6098309450
 O          5.3495753954        2.3323674975       -0.7182638932
 O          3.1401322525        1.8139872694       -1.6469241189
 C          4.5187200883       -0.1500512859       -0.5003908557
 C          4.0778067454       -1.0118786170       -1.4848253524
 C          4.4357598273       -2.3493323444       -1.4131294054
 C          5.2236780019       -2.7978068647       -0.3635676988
 C          5.6563372786       -1.9187182394        0.6179696099
 C          5.3058406021       -0.5799397716        0.5498900550
 H          5.6269854136        0.1347866306        1.2887566131
 H          6.2654902324       -2.2732357200        1.4335781431
 H          5.4983902276       -3.8396086280       -0.3103196704
 H          4.0963291083       -3.0338986518       -2.1744911768
 H          3.4545198080       -0.6215072101       -2.2744358874
 H          3.8862675802        2.8800131663        1.2033771978
 H          1.9042171937        3.6551534184        2.1895619116
 H         -0.4381903154        3.1815085322        2.8049926313
 H         -1.4729963671        1.0325327667        2.1777387921
 H         -0.6809111424       -1.5184321786        1.8067193132
 C          0.4660824032       -1.9678829748        0.0607904959
 C          1.4519854060       -2.8525836762        0.7620133150
 C          0.2140795719       -3.4416992347        0.1573367014
 H          0.3080439397       -4.0390145432       -0.7369569017
 H         -0.5766739301       -3.7665133997        0.8177449683
 H          2.4007460367       -3.0467132171        0.2855751237
 H          1.5042450781       -2.7814396872        1.8377483458
 H          0.7317465807       -1.5675214194       -0.9116285889
