  62
        -98.94361102
 C         -1.1898992301       -0.9691474934       -0.6409818855
 C         -2.2790907470       -1.3228561596        0.1948066176
 C         -3.1377553539       -0.2253970868        0.6498536369
 C         -2.8323331280        1.0399459214        0.3116052811
 C         -3.5836622589        2.2748059428        0.7307102993
 C         -4.8007020965        2.5960995852       -0.1477265006
 C         -6.0006317367        1.6667959963        0.0393262642
 H         -6.2494026097        1.6067369079        1.0993181393
 H         -6.8479320898        2.1315572251       -0.4687167639
 C         -5.8008025983        0.2535147446       -0.5255555209
 H         -4.9563867605        0.2546176874       -1.2184934491
 H         -6.6846188312       -0.0386201324       -1.0969960843
 C         -5.5686132109       -0.8252681605        0.5324146015
 H         -6.4599880688       -0.9259331897        1.1555676013
 H         -5.4052895204       -1.7773956430        0.0213044363
 C         -4.3621159204       -0.5663342639        1.4446586782
 H         -4.5890443339        0.2300638248        2.1536900447
 H         -4.1499959173       -1.4811448564        2.0037181905
 H         -4.4884923722        2.5824410525       -1.1944411492
 H         -5.1157751731        3.6142047753        0.0925327703
 H         -3.8975754850        2.1750934699        1.7704067958
 H         -2.8775725920        3.1054307122        0.6625196298
 O         -1.7610970263        1.3470289907       -0.4623710187
 C         -0.9179595063        0.3606161682       -0.9680692336
 O         -0.0035502391        0.8114014039       -1.6797001856
 H          1.3268924464       -0.2768700337        0.0215524186
 C          1.5312279110       -1.2669944961        0.3945113106
 C          0.7923749594       -2.3408166383       -0.0813537592
 C          1.0620510385       -3.6104734458        0.4146448987
 C          2.0417720342       -3.7930653116        1.3752755233
 C          2.7610930827       -2.7170773333        1.8633354762
 C          2.5003367400       -1.4429394222        1.3697196410
 N          3.2253102138       -0.3319746160        1.8161700989
 S          2.5805901200        1.2083814400        1.7411226738
 O          3.4398534667        1.9869651700        2.6116482666
 O          1.1761297561        1.2244111489        2.0849153259
 C          2.8440653668        1.7347169714        0.0624669188
 C          2.0008710870        2.6892847305       -0.4670628923
 C          2.2221620047        3.1374631333       -1.7588813485
 C          3.2756732962        2.6223756842       -2.4957301118
 C          4.1154207217        1.6646771473       -1.9487227157
 C          3.9038939990        1.2173441491       -0.6552040223
 H          4.5344513410        0.4697466274       -0.2029149352
 H          4.9305294528        1.2609790306       -2.5277663028
 H          3.4388874476        2.9658363785       -3.5052110713
 H          1.5616646968        3.8742396113       -2.1867682984
 H          1.1768664079        3.0472212287        0.1303190928
 H          3.8175774169       -0.4775002036        2.6196531828
 H          3.5141369692       -2.8571981317        2.6234513255
 H          2.2397823579       -4.7826738949        1.7580685732
 H          0.4848797146       -4.4514782182        0.0596594164
 C         -0.2932222004       -2.1062399850       -1.1005984285
 H         -0.9413116259       -2.9976070047       -1.1014290203
 C          0.2452111912       -1.9335344955       -2.5128933462
 C          1.6568755283       -1.5438770437       -2.8201152320
 C          1.1963387353       -2.9443779902       -3.0830721482
 H          1.0597745442       -3.2637332023       -4.1050564531
 H          1.5525141843       -3.7184296451       -2.4201268471
 H          1.8173804155       -0.8782323385       -3.6538310257
 H          2.3295232661       -1.3692443057       -1.9953910146
 H         -0.5136215381       -1.5449261859       -3.1845661550
 O         -2.5251670067       -2.5110259607        0.5400586501
