  62
        -98.93898408
 C         -2.3414822796       -0.7734976369        0.6160310920
 C         -3.4319478767       -0.9894722479       -0.2622582956
 C         -4.6632928360       -0.2444187381        0.0443679019
 C         -4.6961064855        0.5812002340        1.1049952243
 C         -5.8621656397        1.4441279425        1.4892244640
 C         -5.7685212303        2.8293516704        0.8341004032
 C         -5.4871627441        2.7850083715       -0.6678868254
 H         -5.4734954638        3.8165978758       -1.0262878478
 H         -4.4874018307        2.3755890034       -0.8309889270
 C         -6.5058766054        1.9743345396       -1.4811986600
 H         -7.4186437093        1.8372487766       -0.9003494731
 H         -6.7723229969        2.5429269268       -2.3746252642
 C         -5.9977261142        0.6116771586       -1.9554547462
 H         -5.0347284602        0.7343167494       -2.4573425779
 H         -6.7047257286        0.2232036763       -2.6932808644
 C         -5.8402091826       -0.4569082330       -0.8664652424
 H         -6.7636152038       -0.5338987313       -0.2892444774
 H         -5.6644133926       -1.4147021139       -1.3644767260
 H         -6.7046414171        3.3605222947        1.0156292237
 H         -4.9620434241        3.3863151997        1.3167963479
 H         -6.7855741537        0.9513705241        1.1912768983
 H         -5.8578545159        1.5637720026        2.5739154564
 O         -3.6339719627        0.7592332294        1.9317280219
 C         -2.4418456777        0.0948699113        1.7083146723
 O         -1.5542867323        0.3505797751        2.5482812723
 H          1.4063464071       -0.2790312218        0.8346458652
 C          1.0974283346       -0.2484207799       -0.2004517930
 C         -0.1270347835       -0.7805642501       -0.5764122568
 C         -0.5078572084       -0.7076478485       -1.9124469911
 C          0.3261839955       -0.1187438297       -2.8448996042
 C          1.5598123554        0.3851555560       -2.4718438453
 C          1.9463036491        0.3224807872       -1.1383124311
 N          3.1842686824        0.8378823269       -0.7221355858
 S          4.0033895848        0.0315013657        0.5153639013
 O          3.8973679781       -1.3978924709        0.3282288042
 O          3.5521632628        0.5444572524        1.7847613721
 C          5.6750009605        0.5706753597        0.2071155779
 C          6.0880685574        1.7887280090        0.7130331219
 C          7.3782160177        2.2204458420        0.4487457842
 C          8.2282917947        1.4325332282       -0.3132172361
 C          7.7999692650        0.2118214652       -0.8129023891
 C          6.5107172004       -0.2256665401       -0.5532015073
 H          6.1372197610       -1.1713192208       -0.9119417524
 H          8.4642146659       -0.3999648394       -1.4017387934
 H          9.2321782897        1.7706234787       -0.5159860345
 H          7.7157243878        3.1672982892        0.8382888865
 H          5.3952293554        2.3611380663        1.3077973069
 H          3.7957554882        1.0672632846       -1.4937132484
 H          2.2163014883        0.8292745515       -3.2047978399
 H          0.0187959467       -0.0656094958       -3.8785128298
 H         -1.4619796433       -1.1154333119       -2.2084800976
 C         -0.9925884793       -1.4568682109        0.4604163287
 H         -0.4886815167       -1.3398325013        1.4302594734
 C         -1.0955867067       -2.9403658559        0.1554999978
 C          0.1176359974       -3.7970761872        0.3518406910
 C         -1.0520744635       -3.9277739389        1.2800383922
 H         -1.6673688166       -4.8124786394        1.2131576669
 H         -0.9521995366       -3.5393884554        2.2836271115
 H          1.0150214426       -3.3193236091        0.7191862059
 H          0.3046657469       -4.5926333272       -0.3531644961
 H         -1.7412182616       -3.1635270329       -0.6833400994
 O         -3.4069776899       -1.7593079628       -1.2589621017
