  62
        -98.93849180
 C          1.5122808401        0.7705522798        0.0726274199
 C          2.8057565102        1.3317862498        0.1670993092
 C          3.8886353303        0.4128010300        0.5566839696
 C          3.5998569703       -0.8752327498        0.8109272706
 C          4.5299797103       -1.9724667495        1.2655180112
 C          5.9066408902       -2.0599565400        0.5929647410
 C          5.9357432998       -1.6352741111       -0.8824518594
 H          6.4236706496       -2.4171672416       -1.4674224589
 H          4.9181562297       -1.5307655314       -1.2625546492
 C          6.7017779898       -0.3303462213       -1.1124761905
 H          6.9999180395       -0.2781324521       -2.1624640507
 H          7.6157418700       -0.3503990309       -0.5147067508
 C          5.9272151599        0.9492206789       -0.7986325013
 H          6.6175010799        1.7912865988       -0.8912096421
 H          5.1402398198        1.0979077284       -1.5430741712
 C          5.2693637603        1.0023851600        0.5900342988
 H          5.8945984705        0.5257845905        1.3411832990
 H          5.1415123504        2.0543572802        0.8600259180
 H          6.6236570303       -1.4577399596        1.1491533503
 H          6.2348316001       -3.0971670500        0.6798706017
 H          3.9791238203       -2.8999796896        1.0928440521
 H          4.6660141906       -1.8758864586        2.3466328311
 O          2.3338816902       -1.3716218698        0.7152319213
 C          1.2619158502       -0.5742724200        0.3427867910
 O          0.1703306201       -1.1678937500        0.2935378017
 O          3.0454435302        2.5507209896       -0.0483215018
 C          0.3474563001        1.6521944995       -0.3368989205
 C         -0.7496249697        1.5702757603        0.6942082099
 C         -0.4290603193        1.7508721513        2.0378117797
 C         -1.4003028991        1.6563555321        3.0145552200
 C         -2.7115204192        1.3697016219        2.6756270005
 C         -3.0449010195        1.2041030809        1.3375146607
 C         -2.0692259898        1.3187006801        0.3559140104
 H         -2.3611411800        1.2089870094       -0.6740048494
 N         -4.3669234296        0.9348553507        0.9615612213
 S         -4.7163792500        0.0432679296       -0.4044543080
 O         -4.5319911203        0.8521023987       -1.5838193886
 O         -6.0663616900       -0.4285131501       -0.1769657373
 C         -3.5916933701       -1.3399296504       -0.4233296472
 C         -3.5419868198       -2.1657998296        0.6809523034
 C         -2.6856827599       -3.2534814696        0.6645283640
 C         -1.9003545402       -3.4980699405       -0.4502655760
 C         -1.9659947904       -2.6630051313       -1.5528820066
 C         -2.8180736104       -1.5717906513       -1.5409617072
 H         -2.8939989605       -0.8929012919       -2.3761717477
 H         -1.3477784606       -2.8518443320       -2.4164293666
 H         -1.2266748702       -4.3402884805       -0.4576641455
 H         -2.6267004997       -3.9036014190        1.5228422845
 H         -4.1688576996       -1.9545398789        1.5323178934
 H         -5.0007213794        0.7366362113        1.7209054016
 H         -3.4695984190        1.2803740625        3.4385164308
 H         -1.1347303188        1.7958793429        4.0517279798
 H          0.5980180007        1.9589926315        2.3056623993
 H          0.7408997601        2.6796098695       -0.3487805113
 C         -0.1127025903        1.2879424085       -1.7328990001
 C         -0.7811508105        2.3099292578       -2.6014979607
 C          0.6114613394        1.8540491675       -2.9158230207
 H          0.7673174792        1.2222415769       -3.7774567302
 H          1.4282379595        2.5331611077       -2.7188844514
 H         -1.5903780906        1.9941670774       -3.2433181202
 H         -0.9103216003        3.3019741181       -2.1955685914
 H         -0.4524598403        0.2596835384       -1.7989290392
