  62
        -98.94235726
 C          1.9362018334       -0.5919360657       -0.0266424722
 C          2.9827206075       -0.5518596006       -0.9859161923
 C          4.0930426100        0.3637612509       -0.7057686214
 C          4.0617166136        1.1269571421        0.4011555236
 C          5.1039946535        2.1284142599        0.8188749950
 C          6.2920883064        1.5160218038        1.5733072223
 C          7.2573541928        0.6988729482        0.7136562814
 H          7.5659179879        1.2920827896       -0.1477293893
 H          8.1477125480        0.5155160313        1.3184270115
 C          6.6969499950       -0.6492132545        0.2390619947
 H          7.4448189249       -1.4298494891        0.3955245070
 H          5.8264348837       -0.9147060606        0.8433882022
 C          6.3038963362       -0.6881691472       -1.2378010339
 H          7.1933078503       -0.5534904809       -1.8572960435
 H          5.8877894349       -1.6749885991       -1.4558328358
 C          5.2629651271        0.3639429414       -1.6426171947
 H          5.7210822185        1.3522534899       -1.6786361150
 H          4.8909215360        0.1135751604       -2.6390856624
 H          6.8499399119        2.3395528808        2.0250880088
 H          5.9075184951        0.8918793191        2.3833104123
 H          5.4663201310        2.6666776105       -0.0575453193
 H          4.6048916997        2.8390723518        1.4813493215
 O          3.0302902193        1.0841155518        1.2827524303
 C          1.9534461581        0.2207502628        1.1075878584
 O          1.1080200684        0.2986872009        2.0191289370
 O          2.9882385628       -1.2583531848       -2.0289339456
 C          0.8107276517       -1.5760796613       -0.2952292143
 C         -0.3751732073       -0.9176477442       -0.9521406935
 C         -0.9517601414       -1.4649801576       -2.0924357150
 C         -2.0550169543       -0.8705146435       -2.6805354362
 C         -2.6083133670        0.2768507716       -2.1416896064
 C         -2.0400681082        0.8309262557       -1.0015334732
 C         -0.9328958522        0.2346225941       -0.4150212068
 H         -0.4994917955        0.6685867670        0.4738837317
 N         -2.6011763849        1.9911732642       -0.4355226286
 S         -4.2509847908        1.9703480508       -0.1426857968
 O         -4.9568492608        2.2081531983       -1.3771689477
 O         -4.4676843304        2.9387164292        0.9081230261
 C         -4.5877324424        0.3193476468        0.4409472571
 C         -5.2496650292       -0.5797752195       -0.3703353681
 C         -5.4399926279       -1.8755502964        0.0825692280
 C         -4.9667903781       -2.2478136931        1.3310763790
 C         -4.3101524829       -1.3307570262        2.1374133576
 C         -4.1132901561       -0.0349158529        1.6884725603
 H         -3.6054064937        0.7032273805        2.2893030872
 H         -3.9417489304       -1.6216251936        3.1079289682
 H         -5.1083439451       -3.2581860440        1.6802569886
 H         -5.9522740129       -2.5903620132       -0.5409100475
 H         -5.6044458826       -0.2482046189       -1.3321725436
 H         -2.1001504066        2.3170168669        0.3785987607
 H         -3.4646185275        0.7567006347       -2.5869072333
 H         -2.4886041584       -1.3038263291       -3.5686123616
 H         -0.5206814740       -2.3556150193       -2.5253826400
 H          1.2360808402       -2.2834893367       -1.0245384819
 C          0.4234571256       -2.3834838549        0.9375943698
 C         -0.8441951716       -2.1800578198        1.7055137111
 C         -0.6741724929       -3.4034954697        0.8593898392
 H         -0.5291321213       -4.3565023663        1.3446214201
 H         -1.2393538098       -3.4529009828       -0.0589164077
 H         -0.7947836607       -2.2741584372        2.7794317468
 H         -1.5313107729       -1.4201956145        1.3688679614
 H          1.2968121833       -2.6539135509        1.5235860399
