  62
        -98.94214740
 C         -2.4531312507       -0.8700403878       -0.4734372656
 C         -1.5642704047        0.1311414302       -0.9350771636
 C         -2.0389034067        1.5144979102       -0.8144587867
 C         -3.2757198359        1.7616973792       -0.3473864269
 C         -3.9148508655        3.1159312108       -0.2033655840
 C         -3.5571611540        3.8410061167        1.1012415274
 C         -2.1253263911        4.3726694707        1.1781794696
 H         -1.9118863750        4.9718493178        0.2925349181
 H         -2.0760915137        5.0386660966        2.0418637459
 C         -1.0549131238        3.2832104135        1.3354657803
 H         -0.3487030039        3.5683930431        2.1187088984
 H         -1.5232703415        2.3515315782        1.6629972670
 C         -0.2353068189        3.0043144410        0.0755550813
 H          0.3576591541        3.8863649900       -0.1774394399
 H          0.4580645855        2.1902402824        0.3068255035
 C         -1.0749010503        2.6124019740       -1.1481879286
 H         -1.6056340828        3.4836405001       -1.5314523874
 H         -0.4011849687        2.2418957754       -1.9241147097
 H         -4.2421086093        4.6859243744        1.2029784803
 H         -3.7378110776        3.1635976238        1.9391574727
 H         -3.6427943899        3.7412218702       -1.0540646299
 H         -4.9946519845        2.9533126766       -0.2209056531
 O         -4.1212264532        0.7684221777        0.0373821437
 C         -3.7149874756       -0.5552373957        0.0374875140
 O         -4.5600222808       -1.3506802695        0.4941554370
 O         -0.4325148797       -0.1015325355       -1.4339960344
 C         -2.0281993617       -2.3306778867       -0.4121456762
 C         -0.9027659457       -2.3749673089        0.5921933923
 C         -1.2046745605       -2.3804749370        1.9511956276
 C         -0.2087209904       -2.2346680434        2.8992143909
 C          1.1051130028       -2.0454746320        2.5078585095
 C          1.4133439502       -2.0405227791        1.1553317770
 C          0.4222773143       -2.2448894174        0.2060669742
 H          0.6808804679       -2.2380853436       -0.8405502680
 N          2.7421351928       -1.7689695724        0.7693558001
 S          3.2814625314       -0.2123779991        1.1694933099
 O          4.4546353722       -0.3567561132        2.0026249489
 O          2.1979702847        0.5424830061        1.7515067202
 C          3.7599404107        0.5008628964       -0.3956149483
 C          2.7821439269        0.7317178834       -1.3450034028
 C          3.1526540750        1.3000587474       -2.5542625701
 C          4.4796886139        1.6228240822       -2.7944521805
 C          5.4477808998        1.3798592147       -1.8319495666
 C          5.0869100722        0.8136273815       -0.6197415898
 H          5.8015729653        0.6075852715        0.1603088876
 H          6.4792400060        1.6302088650       -2.0206922460
 H          4.7589361487        2.0659088611       -3.7374279248
 H          2.3972118535        1.4839809716       -3.3016513527
 H          1.7531881923        0.4716559515       -1.1418116307
 H          2.8959674985       -1.9396568697       -0.2154220071
 H          1.8912405054       -1.8721745749        3.2264942892
 H         -0.4601098874       -2.2413188455        3.9494761672
 H         -2.2391734347       -2.4692884011        2.2550502360
 H         -2.8849904884       -2.8843287050       -0.0076331666
 C         -1.6783226293       -2.8891638823       -1.7744618409
 C         -1.5332382234       -4.3713876307       -1.9411257610
 C         -2.7119869350       -3.6619468085       -2.5348348799
 H         -2.7571459339       -3.5434341277       -3.6070111699
 H         -3.6781489729       -3.7952196023       -2.0703953340
 H         -0.7697324266       -4.7449446283       -2.6061176008
 H         -1.6981834871       -4.9875615257       -1.0701538060
 H         -1.0240810940       -2.2462951175       -2.3492892621
