  62
        -98.94947419
 C         -1.0696844157       -1.7249630385        0.1184215039
 C         -1.6975580129       -0.9401590220        1.1141922811
 C         -2.8464258752       -0.1414519790        0.6734799922
 C         -3.2267380418       -0.1773181168       -0.6165961309
 C         -4.3765041267        0.5817901066       -1.2211091897
 C         -4.0349516725        2.0328070952       -1.5875593972
 C         -3.9277441071        2.9954308390       -0.4040592420
 H         -3.9300927308        4.0069517884       -0.8152216662
 H         -4.8118839539        2.8966078222        0.2273758772
 C         -2.6608316771        2.8164155314        0.4438143448
 H         -1.9125992863        2.2693996234       -0.1360943302
 H         -2.2279291421        3.7969355334        0.6591714098
 C         -2.8885428834        2.1192679653        1.7854279578
 H         -3.5233523378        2.7466468622        2.4157648433
 H         -1.9222702237        2.0140609885        2.2846876344
 C         -3.5306482477        0.7297078583        1.6845564347
 H         -3.4368330707        0.2401746426        2.6574568135
 H         -4.5891389273        0.8245675276        1.4423867432
 H         -4.8214820667        2.3951394463       -2.2540543613
 H         -3.0942543791        2.0421016933       -2.1445444054
 H         -5.2284526306        0.5672260375       -0.5401538687
 H         -4.6519643197        0.0508963143       -2.1350100179
 O         -2.6026863303       -0.9506234303       -1.5439324367
 C         -1.5042840319       -1.7296165677       -1.2077105160
 O         -1.0218067970       -2.3732540076       -2.1593378890
 O         -1.3165122121       -0.9085947085        2.3158793895
 C          0.1473960014       -2.5457078658        0.4932226202
 C          1.3798059300       -2.1006693955       -0.2598360651
 C          2.4759571732       -2.9363103316       -0.4471775299
 C          3.6002053054       -2.4783863817       -1.1113399942
 C          3.6678606289       -1.1817659150       -1.5895787018
 C          2.5779276593       -0.3386358328       -1.4081439706
 C          1.4532717514       -0.8045849811       -0.7460913950
 H          0.6041404862       -0.1494024463       -0.6445021425
 N          2.5879017912        0.9765329229       -1.8897923298
 S          1.6917205324        2.1757504722       -1.1538999070
 O          0.2847258372        1.9890821033       -1.4058117011
 O          2.2665700228        3.4025957282       -1.6635590413
 C          2.0577146268        2.0203936628        0.5845852064
 C          3.3360074003        2.3381951133        1.0023567375
 C          3.6655550590        2.1764193437        2.3377425958
 C          2.7198870476        1.6912267777        3.2292812763
 C          1.4401803276        1.3822019532        2.7966548633
 C          1.1040438506        1.5517494474        1.4631211465
 H          0.1152751126        1.3164540548        1.1029129897
 H          0.6977309934        0.9923200704        3.4754762669
 H          2.9793690916        1.5545091787        4.2672131250
 H          4.6581586098        2.4223472517        2.6790561408
 H          4.0413945058        2.7184134790        0.2815316765
 H          3.4711276681        1.3085172787       -2.2455578666
 H          4.5450961681       -0.8288261397       -2.1091816162
 H          4.4402965773       -3.1403418278       -1.2564552383
 H          2.4443543298       -3.9488761901       -0.0790577444
 H          0.3172417807       -2.3422532891        1.5623579617
 C         -0.1317724149       -4.0270070514        0.3224422993
 C          0.4240988866       -5.0275753334        1.2902710775
 C         -1.0394070087       -4.7079576350        1.3016997648
 H         -1.7366809892       -5.4450766207        0.9328553197
 H         -1.4265242959       -4.1095913287        2.1136482180
 H          0.7329805476       -5.9910431869        0.9134509599
 H          1.0245188937       -4.6568017754        2.1073565562
 H         -0.2170011327       -4.3134565151       -0.7197899435
