  62
        -98.94739783
 C          2.5652729236       -0.1426095253        0.3968873427
 C          2.1649429827       -0.7117064571       -0.8363303038
 C          1.7151792860       -2.1099207289       -0.7805788498
 C          1.6910905352       -2.7478169967        0.4035544472
 C          1.2322974782       -4.1622570020        0.6110732272
 C         -0.2611530975       -4.2296141461        0.9550936799
 C         -1.1570526331       -3.4447686565       -0.0035685238
 H         -0.9723478099       -2.3743767426        0.1202308481
 H         -2.1911233536       -3.6207990899        0.3034671306
 C         -0.9913137900       -3.8189456203       -1.4830653401
 H         -1.9828518613       -3.8994258177       -1.9332628530
 H         -0.5137765282       -4.7964226808       -1.5684742872
 C         -0.2115398754       -2.7925949205       -2.3076729631
 H         -0.6105151986       -1.7945529063       -2.1112968400
 H         -0.3712447108       -3.0126933550       -3.3670405466
 C          1.3039887074       -2.7587835009       -2.0720019900
 H          1.7496707899       -2.1507789595       -2.8649081721
 H          1.7124488060       -3.7699533589       -2.1420011592
 H         -0.4049538383       -3.8254172714        1.9600275733
 H         -0.5643163499       -5.2787411956        0.9615949244
 H          1.4338827338       -4.7371713152       -0.2909037427
 H          1.8042895439       -4.5871624753        1.4381726104
 O          2.0710512195       -2.1633935220        1.5700008020
 C          2.4984392045       -0.8467599199        1.5974007451
 O          2.7998456924       -0.4261862652        2.7349915912
 H          0.4211397757        1.0529333135        0.9912622060
 C          0.6029401112        1.9040611561        0.3502527495
 C          1.9017563451        2.2030245768       -0.0389647699
 C          2.1114299139        3.3130019777       -0.8474762593
 C          1.0401066725        4.0791261546       -1.2741743307
 C         -0.2555382937        3.7488099502       -0.9216669714
 C         -0.4737070059        2.6488491655       -0.1000678390
 N         -1.7728338490        2.2737441573        0.2952597653
 S         -2.0840752496        0.6087151234        0.3039693310
 O         -1.6410180186        0.0560632929        1.5605406332
 O         -1.5529217668        0.0048898985       -0.8947425824
 C         -3.8666293446        0.6078929599        0.2559268195
 C         -4.5549473378        0.9926008741        1.3913436625
 C         -5.9399334267        1.0201092379        1.3571921952
 C         -6.6097317924        0.6640042688        0.1956551929
 C         -5.9053586114        0.2771317118       -0.9342947827
 C         -4.5194613008        0.2493834576       -0.9076521945
 H         -3.9280080777       -0.0485398290       -1.7585234794
 H         -6.4280966316       -0.0028174202       -1.8345689621
 H         -7.6877685871        0.6851395652        0.1723383690
 H         -6.4909427163        1.3173438835        2.2347968834
 H         -3.9913149368        1.2502300948        2.2728732821
 H         -2.4877716909        2.7668095263       -0.2240406779
 H         -1.0907835729        4.3328570384       -1.2775878740
 H          1.2161845597        4.9360719557       -1.9066237814
 H          3.1122908687        3.5712235194       -1.1528031447
 C          3.0133931424        1.3069174595        0.4532541839
 H          3.1837786553        1.5300469442        1.5176647287
 C          4.3149653450        1.4922815562       -0.2993256471
 C          5.3000153862        2.5341476530        0.1364014109
 C          5.5950216127        1.0827785210        0.3629548192
 H          6.3572230889        0.6084825048       -0.2366386092
 H          5.5272070540        0.6953647497        1.3694574573
 H          5.0438169922        3.1368505900        0.9946648071
 H          5.8656480401        3.0570896672       -0.6199800934
 H          4.2121460382        1.2909579330       -1.3593971122
 O          2.1999924804       -0.0897025544       -1.9307994764
