  62
        -98.93920515
 C         -1.5532763223       -1.3792046267       -0.3147256448
 C         -1.3582100404       -0.0227425086       -0.6591389696
 C         -2.1932633957        0.9684660123        0.0465618736
 C         -3.0612290113        0.5516159032        0.9827731499
 C         -4.0108818595        1.3779128338        1.8068355133
 C         -5.3822244071        1.5000554677        1.1204132954
 C         -5.5148735877        2.6712561816        0.1482959997
 H         -6.4835830852        2.5744617502       -0.3471679686
 H         -5.5262638502        3.6060776688        0.7125024351
 C         -4.4218494302        2.7551612487       -0.9191101417
 H         -4.8002181273        3.3668467026       -1.7401929633
 H         -4.2249721366        1.7590355846       -1.3193792754
 C         -3.1151404422        3.3719514519       -0.3979579075
 H         -3.2882901308        3.8131182519        0.5830014954
 H         -2.8116145421        4.1898284629       -1.0550621909
 C         -1.9304918497        2.4019208009       -0.3299083995
 H         -1.4548461234        2.3491212239       -1.3147198327
 H         -1.1734665439        2.7962776004        0.3585963213
 H         -5.5788752819        0.5613747145        0.5961995855
 H         -6.1485827798        1.6109361000        1.8902658386
 H         -4.1401301632        0.8423895659        2.7500452887
 H         -3.5861477383        2.3543732849        2.0202871863
 O         -3.2260792247       -0.7674580103        1.2831533943
 C         -2.4794320123       -1.7488911542        0.6646169495
 O         -2.7324884007       -2.9069526109        1.0569531129
 H          1.1654044611       -0.6768220399       -0.3406274872
 C          1.3835800005       -1.6242614149        0.1208654397
 C          0.5262586183       -2.6985083899       -0.0744306647
 C          0.8319991621       -3.9165022171        0.5198154271
 C          1.9606559038       -4.0480525079        1.3093893916
 C          2.7828118129       -2.9617565031        1.5442636157
 C          2.4860259830       -1.7372487711        0.9533055707
 N          3.2987689781       -0.6197574217        1.1883057031
 S          2.6662135511        0.9217840624        1.4224121850
 O          3.4437716936        1.4673147194        2.5189015305
 O          1.2367334297        0.8926936750        1.6115898231
 C          3.1304401745        1.7864975456       -0.0642590406
 C          2.2354138812        1.9500166106       -1.1009900425
 C          2.6535136500        2.6154502000       -2.2443151199
 C          3.9477745578        3.1021363416       -2.3326887639
 C          4.8351474536        2.9306809500       -1.2804457824
 C          4.4247762170        2.2678323292       -0.1362705295
 H          5.0754963579        2.1260102256        0.7106486170
 H          5.8415292828        3.3113110380       -1.3488198968
 H          4.2650763894        3.6185055320       -3.2250500266
 H          1.9587221809        2.7441537087       -3.0589747915
 H          1.2323995648        1.5598066448       -1.0186009100
 H          4.0535466442       -0.7894910081        1.8373074376
 H          3.6457033753       -3.0546060790        2.1866491703
 H          2.1898034834       -4.9993294744        1.7655165390
 H          0.1674285332       -4.7562178181        0.3787614836
 C         -0.7358766269       -2.5276200180       -0.8882266190
 H         -1.3477039928       -3.4290917318       -0.7438596818
 C         -0.4186956433       -2.3982799731       -2.3643222456
 C         -0.1314375698       -3.6386610208       -3.1538409731
 C         -1.4107889356       -2.8893907079       -3.3732493700
 H         -1.5346263781       -2.3290982372       -4.2875600546
 H         -2.3272834752       -3.3246849025       -3.0013246495
 H         -0.1821846369       -4.5853221694       -2.6374550489
 H          0.6273505864       -3.5956408667       -3.9197657336
 H          0.1379946387       -1.5040131230       -2.6086156441
 O         -0.5308042008        0.3772221534       -1.5220415353
