  62
        -98.94892451
 C         -2.2405235842       -0.8366614877        0.0790492034
 C         -1.5887092914       -0.1064828903       -0.9434709680
 C         -1.9763803332        1.3040081309       -1.0741105531
 C         -2.8710255466        1.8227039539       -0.2140377568
 C         -3.3622847884        3.2411054115       -0.2348574561
 C         -2.5221971450        4.1547117152        0.6665424462
 C         -1.0146390983        4.0364376945        0.4418349351
 H         -0.5309013431        4.7693448582        1.0924448510
 H         -0.6711700762        3.0520084614        0.7686249488
 C         -0.5644645322        4.2653617889       -1.0076709058
 H         -1.3421596138        4.7928216799       -1.5624128040
 H          0.3207231878        4.9049651883       -0.9979863491
 C         -0.1799498839        2.9838252247       -1.7497340704
 H          0.3773037256        3.2612337686       -2.6487675264
 H          0.4853133251        2.3934518907       -1.1144515111
 C         -1.3494801788        2.0929469249       -2.1888215129
 H         -2.1003636239        2.6972848215       -2.7032482761
 H         -0.9592262399        1.3541243506       -2.8949570730
 H         -2.7321577940        3.9038111937        1.7090811673
 H         -2.8364398340        5.1866800878        0.4960976258
 H         -3.3394345453        3.6077952335       -1.2595102114
 H         -4.3946017308        3.2482018352        0.1207010086
 O         -3.4284337767        1.1061678147        0.7971524330
 C         -3.1177807074       -0.2316800104        0.9761432823
 O         -3.6811440076       -0.7664627209        1.9553528725
 H         -0.3729050903       -0.9574237177        1.9087401502
 C          0.2055506755       -1.6622246598        1.3228721037
 C         -0.4471012606       -2.4921933662        0.4192875956
 C          0.3121457229       -3.3934838635       -0.3154647585
 C          1.6901749957       -3.4257183128       -0.1833280897
 C          2.3396785382       -2.5487287476        0.6666467779
 C          1.5845967699       -1.6668856549        1.4271202019
 N          2.2617511324       -0.6989413011        2.2298455498
 S          2.2781438519        0.7876800269        1.4199083875
 O          3.0243767566        1.6907515035        2.2714214798
 O          0.9373081626        1.2219197352        1.0917269246
 C          3.2086565714        0.4068932191       -0.0439004267
 C          4.5860029494        0.4941985762        0.0219654907
 C          5.3331922398        0.1533406176       -1.0933418818
 C          4.6920234590       -0.2723276279       -2.2474351308
 C          3.3092223971       -0.3558897833       -2.2949168466
 C          2.5530973513       -0.0155807317       -1.1834180549
 H          1.4752661825       -0.0812020218       -1.1962105209
 H          2.8052683166       -0.6901170450       -3.1874477921
 H          5.2728212919       -0.5412992907       -3.1156791925
 H          6.4088355168        0.2175223599       -1.0591108425
 H          5.0352440580        0.8330103909        0.9410435333
 H          1.8092393085       -0.5524459324        3.1233957593
 H          3.4143024233       -2.5317105784        0.7473609895
 H          2.2663567708       -4.1240532630       -0.7701392296
 H         -0.1753286148       -4.0576941529       -1.0101848621
 C         -1.9364361870       -2.3151185764        0.2625260856
 H         -2.4282725745       -2.6158599183        1.1991538977
 C         -2.5255797239       -3.1129718063       -0.8820389311
 C         -2.9266018159       -4.5424932037       -0.6788188664
 C         -3.9760773126       -3.4842066669       -0.8339419742
 H         -4.5474233566       -3.4510098416       -1.7493508209
 H         -4.5353741734       -3.1809735266        0.0394589734
 H         -2.7819318760       -5.2395456173       -1.4901948906
 H         -2.7796359440       -4.9685214220        0.3020622461
 H         -2.1154799595       -2.8250366728       -1.8431924624
 O         -0.7412929127       -0.6140885335       -1.7235615143
