  62
        -98.94318801
 C         -1.8190938586       -0.0958214678        0.3131056882
 C         -2.7416336830       -0.6581119512       -0.6034121190
 C         -4.0079137140        0.0710874792       -0.7617370634
 C         -4.2179041104        1.2153853133       -0.0881161242
 C         -5.4445670938        2.0827878053       -0.1705976828
 C         -6.5940726398        1.6262203591        0.7383319259
 C         -7.3199620788        0.3595945063        0.2829099019
 H         -7.6244901213        0.4716552199       -0.7581299250
 H         -8.2295438262        0.2795350529        0.8815852375
 C         -6.5053118115       -0.9310014060        0.4475949468
 H         -7.1331012618       -1.7021579898        0.8997229328
 H         -5.6746156376       -0.7519554084        1.1341656138
 C         -5.9536893311       -1.5034804255       -0.8581049306
 H         -6.7809585541       -1.8109108201       -1.5016003990
 H         -5.3634924632       -2.3917667311       -0.6198043437
 C         -5.0578686959       -0.5362705795       -1.6428591855
 H         -5.6614330616        0.2425364168       -2.1081643970
 H         -4.5477140367       -1.1006164489       -2.4270268566
 H         -7.3204526569        2.4412824515        0.7787977320
 H         -6.2032793472        1.4797706218        1.7480293556
 H         -5.7918704277        2.1297074928       -1.2031388824
 H         -5.1375432684        3.0842862988        0.1388021185
 O         -3.2949707385        1.7399050184        0.7621266206
 C         -2.0945346695        1.0919250041        0.9973541995
 O         -1.3642298857        1.6644933078        1.8325492731
 O         -2.5442977205       -1.7106324689       -1.2635428029
 C         -0.4680314835       -0.7291905463        0.6137438555
 C          0.5036802139       -0.4201554897       -0.5003795408
 C          0.4515034539       -1.0740619743       -1.7274327250
 C          1.3368784021       -0.7409059865       -2.7356458251
 C          2.3004126121        0.2324643840       -2.5376943617
 C          2.3591482391        0.8943658678       -1.3175973457
 C          1.4617433016        0.5666363029       -0.3104852172
 H          1.5045229566        1.1058626421        0.6244990402
 N          3.3259042918        1.8907772908       -1.0865370819
 S          4.2668307326        1.7800855798        0.2934356939
 O          3.4906006967        2.1124282646        1.4598446300
 O          5.4112847072        2.6227110164        0.0237959526
 C          4.7635223080        0.0679757964        0.3392239112
 C          4.0679766654       -0.8253981951        1.1279799398
 C          4.4154875827       -2.1665096979        1.0859700931
 C          5.4450789924       -2.5880254103        0.2591445456
 C          6.1385507419       -1.6771372880       -0.5233552270
 C          5.7929136732       -0.3362701413       -0.4886089897
 H          6.3119250817        0.4058531909       -1.0734179787
 H          6.9425476727       -2.0079310904       -1.1608130638
 H          5.7092335464       -3.6331637588        0.2277362306
 H          3.8785641409       -2.8764419834        1.6947424653
 H          3.2768900920       -0.4549998208        1.7600036688
 H          3.9075981446        2.0884874118       -1.8885873660
 H          2.9941800812        0.4885317182       -3.3241639365
 H          1.2805329540       -1.2499560472       -3.6857538328
 H         -0.3097430785       -1.8188288383       -1.8952530993
 H         -0.1041184821       -0.2243804062        1.5191941465
 C         -0.5658420725       -2.2141984620        0.8999971374
 C          0.5229066183       -2.8733345878        1.6892354434
 C         -0.8289830850       -2.6682470517        2.3028946805
 H         -1.4655227734       -3.5268809827        2.4556252772
 H         -0.9349368188       -1.9073295036        3.0632970361
 H          0.8193035260       -3.8755521957        1.4213701237
 H          1.3312956398       -2.2480284009        2.0367800720
 H         -1.0298539334       -2.7809262481        0.1045385072
