  62
        -98.94537895
 C         -0.9775010793       -1.3096172601        0.1476639812
 C         -1.3995783194       -0.1315079298        0.8093654807
 C         -2.4037161193        0.6756297599        0.1036738102
 C         -2.7965133191        0.3050249995       -1.1286286097
 C         -3.8418205489        1.0088309993       -1.9437766401
 C         -5.2331844990        0.4089639794       -1.6960784802
 C         -5.5839751093        0.2546285599       -0.2161413202
 H         -4.9197603093       -0.4879996000        0.2319331002
 H         -6.5977766393       -0.1482537001       -0.1623643203
 C         -5.5074869094        1.5565790102        0.5934570794
 H         -6.3915866395        1.6241007904        1.2309472092
 H         -5.5287061592        2.4133606499       -0.0807737309
 C         -4.2876972796        1.6628289505        1.5108903495
 H         -4.2109930297        0.7607295907        2.1231592799
 H         -4.4463782097        2.5053091607        2.1892286692
 C         -2.9418451594        1.8877077402        0.8093802197
 H         -2.2031410896        2.1371912404        1.5754870998
 H         -3.0251951193        2.7289843500        0.1197085394
 H         -5.2725798589       -0.5786668208       -2.1614066399
 H         -5.9753926789        1.0436245892       -2.1836553406
 H         -3.5898817487        0.8933439989       -2.9991550301
 H         -3.8413330790        2.0673104994       -1.6924900605
 O         -2.3141345790       -0.7945480107       -1.7613787593
 C         -1.4108379591       -1.6411771305       -1.1363860888
 O         -1.0794851890       -2.6283721307       -1.8189854684
 O         -0.9615151597        0.2247562305        1.9363572707
 C          0.0344391805       -2.2126609298        0.8318683817
 C          1.3071007907       -2.2161012701        0.0226937919
 C          1.8615443808       -3.3526167203       -0.5494827076
 C          3.0105363809       -3.2571774006       -1.3156616374
 C          3.6363752210       -2.0397005007       -1.5086572277
 C          3.0950921509       -0.8969667805       -0.9296357382
 C          1.9373325907       -0.9933191602       -0.1767129084
 H          1.5138877807       -0.1041740501        0.2689069412
 N          3.6901966709        0.3611653694       -1.1109920385
 S          3.7674539407        1.4187092899        0.1835591711
 O          4.8248804708        2.3433176397       -0.1707334190
 O          3.9432907104        0.7144836403        1.4326391414
 C          2.2228648707        2.3014417099        0.1728023205
 C          1.6334790205        2.6291037403        1.3771589803
 C          0.4737692105        3.3864613203        1.3723353799
 C         -0.0746697893        3.7983658199        0.1683701696
 C          0.5235992709        3.4523804795       -1.0334381902
 C          1.6879772409        2.7017748895       -1.0353597697
 H          2.1823615711        2.4182892192       -1.9497691795
 H          0.0879483711        3.7674343492       -1.9681031404
 H         -0.9745431593        4.3927421299        0.1682535292
 H          0.0034215103        3.6463590107        2.3070933597
 H          2.0840424003        2.2758866906        2.2910568905
 H          4.5499295910        0.3550436893       -1.6406140484
 H          4.5339329511       -1.9689684309       -2.1043041676
 H          3.4273518410       -4.1457803008       -1.7652141471
 H          1.3888715407       -4.3103035703       -0.4083492974
 H          0.2507282103       -1.7321701295        1.7974965215
 C         -0.5412817696       -3.5882912497        1.0883527920
 C          0.0427671802       -4.4506519994        2.1659667424
 C         -1.3086334598       -3.8306937793        2.3520775120
 H         -2.1792671298       -4.4680517793        2.3126325920
 H         -1.4026432899       -3.0057135491        3.0432633717
 H          0.0996204702       -5.5159827894        2.0017988628
 H          0.8683934001       -4.0476555692        2.7331710524
 H         -0.9019502594       -4.0686404700        0.1861225121
