  62
        -98.94145886
 C          1.7990609558        1.0231361776        0.6822597036
 C          2.0076588936       -0.3655780330        0.8990947152
 C          3.3735240510       -0.8597684815        0.7015218538
 C          4.3480624910        0.0014668695        0.3584372740
 C          5.8000773923       -0.3361981121        0.1545172402
 C          6.1264835676       -0.8747407847       -1.2450749470
 C          5.6367714094       -2.2960724899       -1.5250583772
 H          6.1177741659       -2.6240946128       -2.4487412353
 H          5.9759114958       -2.9592216895       -0.7286282964
 C          4.1155014701       -2.4205386523       -1.6894905466
 H          3.6864540512       -1.4325411899       -1.8725318432
 H          3.8933577307       -3.0321751355       -2.5668617394
 C          3.3981442094       -3.0578505640       -0.4993007394
 H          2.3253098418       -3.0596354417       -0.7079028456
 H          3.7229597529       -4.0947843889       -0.3887757446
 C          3.6195502543       -2.3322732456        0.8343538948
 H          4.6291921527       -2.5174255656        1.2005808951
 H          2.9043377847       -2.7240260492        1.5614700474
 H          5.7083605314       -0.1919727358       -1.9883984023
 H          7.2133998788       -0.8594225862       -1.3543784920
 H          6.1167149184       -1.0592911831        0.9067657443
 H          6.3584660853        0.5901684059        0.3056482375
 O          4.1142082525        1.3256238462        0.1725305039
 C          2.8412601774        1.8669415861        0.2977010965
 O          2.8013984345        3.0878832704        0.0459596850
 O          1.0910362123       -1.1535389914        1.2536160807
 C          0.3810816368        1.5262210657        0.8836652338
 C         -0.3804376964        1.6115291944       -0.4176829681
 C          0.0396352686        2.4341309052       -1.4575134562
 C         -0.6960929248        2.5104317235       -2.6257570905
 C         -1.8691892176        1.7902928698       -2.7712062434
 C         -2.2980670611        0.9667931676       -1.7372992902
 C         -1.5439050885        0.8732867318       -0.5759906863
 H         -1.8726988358        0.2198376470        0.2174921585
 N         -3.4746827035        0.2153147005       -1.8546432487
 S         -4.4644001230       -0.0145904811       -0.5250049664
 O         -5.7564568330       -0.3388523820       -1.0911511977
 O         -4.4291709461        1.1200500200        0.3676752543
 C         -3.8074097736       -1.4596562604        0.2790259999
 C         -3.5552807248       -2.5810805510       -0.4857673330
 C         -3.0643066997       -3.7174017288        0.1361369654
 C         -2.8387820393       -3.7149030203        1.5042942517
 C         -3.1014721539       -2.5824726003        2.2588694915
 C         -3.5912299672       -1.4422151550        1.6423521274
 H         -3.8009397876       -0.5369076052        2.1906659585
 H         -2.9220451108       -2.5810178470        3.3221496330
 H         -2.4529793378       -4.5993739550        1.9861562060
 H         -2.8560749186       -4.6003741013       -0.4464849930
 H         -3.7433415422       -2.5460475538       -1.5459364896
 H         -4.0036051468        0.3747859637       -2.6994493864
 H         -2.4488586654        1.8638250960       -3.6789324252
 H         -0.3596527729        3.1490516986       -3.4287638899
 H          0.9463409355        3.0076638117       -1.3404770452
 H         -0.1088267038        0.7570827627        1.4966743167
 C          0.2896295402        2.8495539447        1.6198823123
 C         -1.0349570895        3.2638628452        2.1855591919
 C          0.0776197835        2.8541159161        3.1024127017
 H          0.5681855851        3.6154978274        3.6901556779
 H          0.0026764624        1.8984764144        3.6005144572
 H         -1.3071549308        4.3074781550        2.1428329211
 H         -1.8707280662        2.5918900806        2.0531337689
 H          0.9220290290        3.6212758000        1.2011942508
