  62
        -98.94475983
 C         -2.0241704347        1.0672600456        0.3426718174
 C         -3.1045122726        1.2024753555       -0.5695783476
 C         -4.3563151998        0.5353680173       -0.1999991403
 C         -4.4310282098       -0.1441120865        0.9584442759
 C         -5.6427481915       -0.8596037752        1.4907326574
 C         -5.8289446484       -2.2759877396        0.9295233476
 C         -6.2888772595       -2.3434823219       -0.5273746038
 H         -6.5895209137       -3.3751923874       -0.7205057666
 H         -7.1722691952       -1.7175837628       -0.6576647393
 C         -5.2158463568       -1.9430701216       -1.5496631066
 H         -4.2318013527       -1.9701366890       -1.0753990579
 H         -5.1972990135       -2.6724093308       -2.3626759295
 C         -5.4233954196       -0.5662370054       -2.1808203604
 H         -6.3414831458       -0.5691519372       -2.7725169851
 H         -4.5871112930       -0.3705402409       -2.8566954193
 C         -5.4967590770        0.5865244565       -1.1711325742
 H         -6.4488148449        0.5626989344       -0.6413455613
 H         -5.4239857153        1.5284218825       -1.7202402621
 H         -6.5783466858       -2.7752650294        1.5481490522
 H         -4.8894117550       -2.8225449018        1.0405258749
 H         -5.5105533677       -0.9327695432        2.5724216834
 H         -6.5356827992       -0.2670846329        1.2892539514
 O         -3.3806736738       -0.2397385288        1.8135288357
 C         -2.1524128712        0.3398682219        1.5258464346
 O         -1.2929389493        0.1346276670        2.4068626498
 O         -3.0261108935        1.8613109866       -1.6398624937
 C         -0.7173255561        1.7433615677       -0.0395757417
 C          0.2672964647        0.7271366689       -0.5664520621
 C          0.5238227180        0.6337099180       -1.9298505952
 C          1.4252024672       -0.2965293034       -2.4174895516
 C          2.0909108224       -1.1493634298       -1.5557750679
 C          1.8361535984       -1.0670203424       -0.1925152780
 C          0.9373780776       -0.1295260162        0.2955375704
 H          0.7285492622       -0.0872351246        1.3536956436
 N          2.5158296291       -1.9251926623        0.6903852240
 S          4.1784909416       -2.0160177656        0.5163980466
 O          4.5035725510       -2.9630649884       -0.5216277100
 O          4.6902378316       -2.3270013525        1.8328404752
 C          4.6809599416       -0.3786552227        0.0132987448
 C          5.3194838397       -0.1963634847       -1.1962058933
 C          5.6676126434        1.0877743451       -1.5838606711
 C          5.3669263381        2.1621749255       -0.7616625052
 C          4.7270240702        1.9621569506        0.4519961129
 C          4.3791843493        0.6808261686        0.8461413325
 H          3.8834821604        0.4939382885        1.7853516443
 H          4.4934517303        2.7995029648        1.0896497596
 H          5.6320492174        3.1622252700       -1.0663375075
 H          6.1669091642        1.2458596736       -2.5261327438
 H          5.5285957597       -1.0596779441       -1.8066567036
 H          2.2522667410       -1.7986793130        1.6567688261
 H          2.7944936940       -1.8830592953       -1.9150745933
 H          1.6124710055       -0.3579481207       -3.4785410943
 H         -0.0013076886        1.2902090140       -2.6083969001
 H         -0.9786391074        2.4135961499       -0.8692208730
 C         -0.1236234822        2.5740094094        1.0814252201
 C          0.9501190401        3.5674232737        0.7565292738
 C         -0.4183097045        4.0414472320        1.1418137384
 H         -0.5546078487        4.4993329332        2.1101975472
 H         -1.0514664321        4.4566646210        0.3714352164
 H          1.7552321593        3.7014960521        1.4621249269
 H          1.2482001152        3.6596355725       -0.2766503315
 H         -0.0540774627        2.0459142433        2.0233388249
