  62
        -98.94307336
 C          1.6901003141        1.2748558763        0.3505551898
 C          1.3726860200        0.1810708106       -0.4863525751
 C          1.9693119169       -1.1138310269       -0.1259429527
 C          2.7322271231       -1.2029055320        0.9764097408
 C          3.3891757517       -2.4268078142        1.5642285408
 C          4.0885178265       -3.3918060326        0.5960940529
 C          4.7168864167       -2.7323631976       -0.6404430497
 H          4.7385451834       -1.6485457912       -0.5148775619
 H          5.7503708298       -3.0707898131       -0.7346120862
 C          3.9875445780       -3.0827654925       -1.9396899162
 H          4.6647418564       -2.9094214223       -2.7793867843
 H          3.7464622390       -4.1478490212       -1.9281470209
 C          2.7132619666       -2.2847233099       -2.2133221398
 H          2.2323473592       -2.7118062294       -3.0963240633
 H          2.9700232492       -1.2498894282       -2.4547130073
 C          1.6925846260       -2.2531422752       -1.0636786998
 H          0.7044963960       -2.0598574250       -1.4901714098
 H          1.6556990509       -3.2040020273       -0.5372102640
 H          3.3820991578       -4.1546425623        0.2714653115
 H          4.8631236051       -3.9048741677        1.1686946607
 H          2.6297833187       -2.9725177247        2.1328124113
 H          4.1145334221       -2.0412288999        2.2851492852
 O          2.9929606149       -0.1264128560        1.7722446897
 C          2.4783019679        1.1263904621        1.4882316814
 O          2.7912176277        2.0130844944        2.3110896692
 O          0.6152086004        0.2798586563       -1.4876701563
 C          1.1010022582        2.6423022618        0.0578103961
 C         -0.4046161784        2.5505333275       -0.0121648195
 C         -1.1685637756        3.2545014404       -0.9352377276
 C         -2.5456828351        3.1156458564       -0.9593413314
 C         -3.1866661704        2.2580566417       -0.0839300681
 C         -2.4317366755        1.5575582199        0.8492562611
 C         -1.0586975434        1.7307214907        0.8985366304
 H         -0.4887775567        1.1798843382        1.6330458395
 N         -3.0269820603        0.6470088526        1.7494866794
 S         -2.5996047354       -0.9652982927        1.5627958199
 O         -3.4079527037       -1.6813011905        2.5273193108
 O         -1.1732998013       -1.1173873220        1.6885965152
 C         -3.1539769237       -1.3700936950       -0.0844501397
 C         -2.3963376375       -0.9851394395       -1.1723189700
 C         -2.8874851426       -1.2344051143       -2.4453881770
 C         -4.1161189579       -1.8546866206       -2.6090187605
 C         -4.8640307967       -2.2350280731       -1.5046049291
 C         -4.3829293930       -1.9858829536       -0.2298761357
 H         -4.9268305903       -2.2644485472        0.6583661173
 H         -5.8184756116       -2.7198176448       -1.6324595059
 H         -4.4913323380       -2.0428518733       -3.6026130418
 H         -2.2992209108       -0.9346986559       -3.2979066393
 H         -1.4400728001       -0.5060789502       -1.0266426520
 H         -4.0357487173        0.7135747853        1.7828924028
 H         -4.2578457547        2.1280428123       -0.1203133305
 H         -3.1253192975        3.6681999494       -1.6827667820
 H         -0.6835264181        3.9088254385       -1.6410746513
 H          1.3689784607        3.2800891470        0.9135031027
 C          1.7226121551        3.2198316222       -1.1982542399
 C          1.9190322762        4.6986016274       -1.3398750821
 C          3.1000371900        3.8036540845       -1.1176081711
 H          3.7826130640        3.6324803184       -1.9364575601
 H          3.5762172702        3.8113269339       -0.1475264534
 H          1.7948390875        5.1446715310       -2.3151437338
 H          1.6016423644        5.3268698660       -0.5213674062
 H          1.4732948422        2.6470405942       -2.0841750380
