  62
        -98.93247092
 C         -2.2591363492       -1.0017676999        0.7276723794
 C         -1.9709384389       -0.2068016898       -0.4075871305
 C         -2.2593437990        1.2391749301       -0.2996067506
 C         -2.7766547995        1.7184959501        0.8459143992
 C         -3.1990928397        3.1290794101        1.1576193890
 C         -4.5286498495        3.5125359900        0.4855329986
 C         -4.6792587589        3.0509562299       -0.9618978615
 H         -4.5514930988        1.9679001799       -1.0089625314
 H         -5.7030378389        3.2707595798       -1.2756238618
 C         -3.7335121287        3.7151987700       -1.9595229412
 H         -3.9924332783        3.3405659200       -2.9530354413
 H         -3.9075018987        4.7935452500       -1.9547319812
 C         -2.2410338987        3.4668439901       -1.7325477707
 H         -1.8647694190        4.0662960402       -0.9078146905
 H         -1.7117716984        3.8071865901       -2.6276270105
 C         -1.8562202287        2.0032824501       -1.5369847305
 H         -2.2246902383        1.4186095601       -2.3878392706
 H         -0.7613381686        1.9203159902       -1.5816281701
 H         -5.3388993596        3.0607177999        1.0627213083
 H         -4.6408237796        4.5965753799        0.5375577885
 H         -3.3274514901        3.1865062901        2.2408481090
 H         -2.4076386296        3.8199554101        0.8815565093
 O         -3.0339538098        0.9149411801        1.9182811691
 C         -2.7489816296       -0.4363633099        1.9055340592
 O         -2.9649252500       -1.0183512999        2.9883231392
 H          0.2749702906       -1.2097202896        1.4903931003
 C          0.4851148009       -1.9054049896        0.6847898403
 C         -0.5477181389       -2.6851204897        0.1777613500
 C         -0.2611634684       -3.5621400997       -0.8591434299
 C          1.0162275817       -3.6294011996       -1.3896269194
 C          2.0302824515       -2.8231533195       -0.9065143591
 C          1.7553772711       -1.9542558595        0.1393683308
 N          2.7812020309       -1.0883108294        0.6086033311
 S          2.9447357711        0.2960911206       -0.3573222788
 O          1.9815966009        1.2980813505        0.0540275908
 O          2.9245911416       -0.0985157595       -1.7412830388
 C          4.5886633809        0.8196301207        0.0936753417
 C          4.7610726405        1.8504004507        0.9962819418
 C          6.0481741003        2.2146177708        1.3606443622
 C          7.1342801206        1.5418690309        0.8222674126
 C          6.9449390210        0.5077054209       -0.0826482175
 C          5.6610430211        0.1401678908       -0.4511612179
 H          5.4643025314       -0.6507614193       -1.1556116180
 H          7.7919984111       -0.0119448291       -0.5005889272
 H          8.1344550104        1.8265847010        1.1083769829
 H          6.1974256600        3.0195900808        2.0622664622
 H          3.8876824003        2.3499496106        1.3841852815
 H          2.5740462405       -0.7589616795        1.5440205410
 H          3.0167890117       -2.8369906395       -1.3393650488
 H          1.2180949521       -4.3065722096       -2.2057385994
 H         -1.0466339582       -4.1682650498       -1.2801051201
 C         -1.9218463791       -2.4840288998        0.7695962495
 H         -1.8687627594       -2.7312633498        1.8434642096
 C         -2.9842939988       -3.3907574999        0.1679516192
 C         -4.4200127388       -2.9636297900        0.1115774987
 C         -3.6276447084       -3.0961181700       -1.1523901910
 H         -3.8497268681       -3.9235216800       -1.8103916411
 H         -3.3178349683       -2.2000246100       -1.6661952010
 H         -5.1811005888       -3.6994411201        0.3236825784
 H         -4.6614806690       -1.9715299101        0.4651072686
 H         -2.8057099588       -4.4355080099        0.4025811593
 O         -1.4961910185       -0.6670911198       -1.4787321503
