  62
        -98.94842854
 C         -0.7809077647       -1.2311271717        0.0787531784
 C         -1.5229006404       -0.6635152991        1.1408514315
 C         -2.4018977976        0.4566403688        0.7811211722
 C         -2.4370349604        0.8814385588       -0.4954527766
 C         -3.3898224212        1.9128267602       -1.0260423983
 C         -4.6895503012        1.2578658929       -1.5172555557
 C         -5.3172218343        0.2893009590       -0.5149783868
 H         -6.2424307729       -0.0841695685       -0.9591508041
 H         -4.6548209693       -0.5693617520       -0.3836013331
 C         -5.6224494985        0.9055432028        0.8574014092
 H         -5.6300250209        1.9935514047        0.7828625544
 H         -6.6224437844        0.5951914491        1.1676949367
 C         -4.6603837293        0.4813314737        1.9684656375
 H         -5.0803128958        0.8022324854        2.9256592463
 H         -4.5861346726       -0.6088700703        1.9936744285
 C         -3.2412905994        1.0563374865        1.8737993895
 H         -3.2902489598        2.1423104687        1.7712474188
 H         -2.7256483444        0.8240166082        2.8106650162
 H         -4.4728262098        0.7059555378       -2.4345354496
 H         -5.4039442643        2.0477812228       -1.7560903360
 H         -3.6116550290        2.6363001909       -0.2440871094
 H         -2.9177637418        2.4233393785       -1.8655897941
 O         -1.6486004270        0.3636277160       -1.4701815037
 C         -0.7989907035       -0.7010500599       -1.2113003996
 O         -0.1319455041       -1.0770579092       -2.1923069501
 H          1.5467463440       -0.3866901439        1.0983389257
 C          2.1120182752       -1.0559172030        0.4651372463
 C          1.5071732985       -2.2069970676       -0.0253099333
 C          2.2576057759       -3.0694949108       -0.8137663891
 C          3.5750694812       -2.7727885980       -1.1163815287
 C          4.1687314825       -1.6182399983       -0.6424378293
 C          3.4291747613       -0.7551396249        0.1599052234
 N          4.0118525178        0.4125735531        0.6695358561
 S          3.1084300115        1.7270969725        1.1280355986
 O          4.0684221439        2.8109421159        1.1788949512
 O          2.4150131552        1.4578865386        2.3636606013
 C          1.9320330736        2.0732308696       -0.1686100723
 C          2.2246744580        1.7860951214       -1.4862125553
 C          1.3235387889        2.1623411691       -2.4692314711
 C          0.1635856790        2.8361266457       -2.1242815164
 C         -0.1148252121        3.1214666672       -0.7969752778
 C          0.7721983362        2.7292271781        0.1912090692
 H          0.5850998216        2.9143216400        1.2373979030
 H         -1.0174734150        3.6448117832       -0.5258121094
 H         -0.5286641545        3.1350473907       -2.8955477609
 H          1.5291940100        1.9256197921       -3.5005316238
 H          3.1345410131        1.2671897759       -1.7401127439
 H          4.9108559953        0.6650180073        0.2884698162
 H          5.1941279174       -1.3837936243       -0.8835007733
 H          4.1458242602       -3.4476608058       -1.7357899048
 H          1.8107927947       -3.9714917850       -1.1974036636
 C          0.0688888079       -2.4594343183        0.3467140145
 H          0.0223794581       -2.6159502666        1.4351676270
 C         -0.5371783923       -3.6635656514       -0.3454191533
 C         -0.3474628766       -5.0381243229        0.2207584541
 C         -1.6860807747       -4.3703568824        0.3067826912
 H         -2.4883557163       -4.7363262896       -0.3163630850
 H         -2.0143357482       -3.9996854787        1.2671382180
 H         -0.2334146503       -5.8668679194       -0.4615747246
 H          0.2316380304       -5.1292178448        1.1272321918
 H         -0.5680032047       -3.5512669232       -1.4236036045
 O         -1.4683961009       -1.0863515165        2.3283222036
