  62
        -98.93783084
 C         -2.0280408961       -0.8537937324        0.5541758903
 C         -2.1763035313       -0.1417545517       -0.6578443386
 C         -2.3672263171        1.3148953739       -0.5458896819
 C         -2.3615300202        1.8914660319        0.6702285810
 C         -2.4554342400        3.3457713926        1.0838514509
 C         -2.9312494315        4.4106435800        0.0988851675
 C         -4.3965709927        4.2895563147       -0.3174121776
 H         -5.0235621432        4.5224883900        0.5467770362
 H         -4.5952314357        5.0399220838       -1.0856294277
 C         -4.8206670842        2.9192554507       -0.8394963888
 H         -4.7247118189        2.1780677874       -0.0434753299
 H         -5.8804282841        2.9750749594       -1.1023148460
 C         -4.0618408333        2.4257220548       -2.0698636129
 H         -4.5720620570        1.5297110907       -2.4327660164
 H         -4.1086010694        3.1798937390       -2.8576499324
 C         -2.5871057623        2.0527564832       -1.8350776287
 H         -2.2781770081        1.3693497578       -2.6316017147
 H         -1.9409609917        2.9260327893       -1.8886029552
 H         -2.2862780171        4.4273306848       -0.7746254630
 H         -2.8086557595        5.3738658464        0.6017400479
 H         -3.0988675281        3.3625337871        1.9695420424
 H         -1.4498105203        3.6148105984        1.4273731230
 O         -2.2006028219        1.1613759389        1.8144395877
 C         -2.0217562039       -0.2094123456        1.7876706908
 O         -1.8778702167       -0.7328848928        2.9136257161
 H          0.4606632830       -0.8791495774        0.4925353205
 C          0.5620698447       -1.7580598555       -0.1280605057
 C         -0.5026770409       -2.6429148346       -0.2406094453
 C         -0.3428399515       -3.7747125232       -1.0299331141
 C          0.8510676736       -4.0007450140       -1.6935921324
 C          1.9021103263       -3.1091693772       -1.5906001598
 C          1.7498557983       -1.9692507896       -0.8068438017
 N          2.7783420447       -1.0160109646       -0.7317062850
 S          2.8097253356        0.1369548527        0.4904367807
 O          2.7941086493       -0.4984627930        1.7908329912
 O          1.7832410819        1.1185875122        0.2404473564
 C          4.4130947171        0.8532891508        0.1819791536
 C          5.4953267492        0.4596516454        0.9459270816
 C          6.7408923815        1.0048163690        0.6756447302
 C          6.8828038966        1.9268385992       -0.3503232820
 C          5.7871076466        2.3130664323       -1.1082743903
 C          4.5390530292        1.7726857769       -0.8424412062
 H          3.6570038632        2.0474261452       -1.3974111825
 H          5.9002900199        3.0321813623       -1.9033963091
 H          7.8528044102        2.3496571598       -0.5587966072
 H          7.5934227590        0.7090902229        1.2654336050
 H          5.3341696057       -0.2534466469        1.7383548928
 H          3.6945821647       -1.3872317362       -0.9388086810
 H          2.8278871027       -3.2826953033       -2.1169205008
 H          0.9631708338       -4.8850123531       -2.3024258754
 H         -1.1535519855       -4.4783026737       -1.1264004648
 C         -1.7697763393       -2.3476969664        0.5285321839
 H         -1.6050325348       -2.6449533231        1.5760318236
 C         -2.9790611082       -3.0881444221       -0.0064400841
 C         -3.3220894347       -4.4543151309        0.5046540572
 C         -4.1639168233       -3.2766797046        0.8910511284
 H         -5.1525059480       -3.1840050559        0.4673273419
 H         -4.0835307975       -2.8966899299        1.8996194747
 H         -3.7378600393       -5.1734373240       -0.1849622651
 H         -2.6789880646       -4.8828001472        1.2587052358
 H         -3.1708029668       -2.8651083284       -1.0495896746
 O         -2.1412629883       -0.6933465981       -1.7895225345
