  62
        -98.93397302
 C          2.2741582237        1.1562109105        0.3329434081
 C          2.3169489667        0.0414658660       -0.5364971478
 C          3.2154480235       -1.0696404066       -0.1519414276
 C          3.9026810733       -0.9849137595        1.0014755744
 C          4.8968005933       -1.9596465372        1.5754268106
 C          6.2570299528       -1.9113619954        0.8619907626
 C          6.1815625038       -1.8727612834       -0.6618608605
 H          5.6084414706       -0.9966641733       -0.9704067172
 H          7.1988535370       -1.7440997978       -1.0407717664
 C          5.5931005368       -3.1209495705       -1.3153592047
 H          5.6990097676       -3.0004453318       -2.3964575789
 H          6.1820543446       -3.9919438844       -1.0196482807
 C          4.1193006087       -3.4026810653       -1.0132603893
 H          3.9964814335       -3.8508491707       -0.0308420854
 H          3.7751724510       -4.1463967701       -1.7377971557
 C          3.1994485983       -2.1947137638       -1.1587531347
 H          2.1608178939       -2.5459970399       -1.1851145927
 H          3.3684187249       -1.7308538029       -2.1372333160
 H          6.8417243235       -2.7768780902        1.1782962252
 H          6.7810133292       -1.0113339137        1.1933098362
 H          5.0423484451       -1.6776219590        2.6207680035
 H          4.4874798609       -2.9654404151        1.5589011977
 O          3.7918658326        0.0917440719        1.8337134058
 C          2.9809750729        1.1686579126        1.5364483102
 O          2.9622073013        2.0568523600        2.4134954620
 O          1.6456213790       -0.0438283604       -1.5965218828
 C          1.3844253329        2.3546264396        0.0523104535
 C          0.0126326422        1.8907604094       -0.3757061512
 C         -0.6134040392        2.2982030685       -1.5455556650
 C         -1.8799423201        1.8358066194       -1.8590920568
 C         -2.5460869848        0.9601715584       -1.0224681674
 C         -1.9314461488        0.5491874577        0.1533997014
 C         -0.6695260055        1.0251478949        0.4716550692
 H         -0.1909318344        0.7051189068        1.3905919542
 N         -2.5893864080       -0.3592894728        1.0013160708
 S         -4.1750765071       -0.0366540424        1.4451163773
 O         -4.4410623993        1.3832743896        1.4661771522
 O         -4.3682181324       -0.7442475249        2.6924848285
 C         -5.1456501952       -0.8229696799        0.1767157230
 C         -6.0981795735       -0.0974224930       -0.5114560509
 C         -6.8497744402       -0.7343100047       -1.4868574080
 C         -6.6370012178       -2.0779128041       -1.7543188155
 C         -5.6778606720       -2.7929089181       -1.0523234531
 C         -4.9241747929       -2.1627489616       -0.0751664015
 H         -4.1711160360       -2.6824119863        0.4936775990
 H         -5.5148163100       -3.8375263338       -1.2634880791
 H         -7.2217472570       -2.5714270124       -2.5144535248
 H         -7.5960850462       -0.1805001207       -2.0333736964
 H         -6.2239548511        0.9467780167       -0.2734679094
 H         -2.0433909127       -0.6348640489        1.8044523927
 H         -3.5280079046        0.5908912860       -1.2694808711
 H         -2.3519362315        2.1562678125       -2.7753505535
 H         -0.1029905047        2.9612015384       -2.2242170452
 H          1.2728649739        2.8564249419        1.0287693221
 C          1.9982325501        3.3799676808       -0.8897728420
 C          3.4850543830        3.5052096721       -1.0339994363
 C          2.6627957673        2.9883659221       -2.1740270067
 H          2.5276847051        3.6255538063       -3.0358167712
 H          2.7073615772        1.9371751519       -2.4093685610
 H          3.9098888959        4.4950498329       -1.1091977638
 H          4.1024011451        2.8073589808       -0.4866688712
 H          1.4392033498        4.3107562114       -0.8927167420
