  62
        -98.94904309
 C         -0.8754497918       -1.3543594467        0.2325802577
 C         -1.4401407973       -0.2862283589        0.9663158063
 C         -2.2757443507        0.6478397122        0.2006770781
 C         -2.3947411262        0.4823995082       -1.1294993927
 C         -3.2227103445        1.3544815479       -2.0284399810
 C         -4.6449708966        0.8005162823       -2.1901524610
 C         -5.3205317704        0.4468965149       -0.8651771784
 H         -6.3287063260        0.0972420557       -1.0974413407
 H         -4.7871431440       -0.3893117117       -0.4073710074
 C         -5.3985683257        1.6079781450        0.1358599040
 H         -5.2496893796        2.5550759374       -0.3839068004
 H         -6.4010208778        1.6294986898        0.5683208072
 C         -4.4129773988        1.5075805889        1.3014098752
 H         -4.7035700130        2.2443466865        2.0548921564
 H         -4.4918384048        0.5196287863        1.7616300280
 C         -2.9391121142        1.7629937236        0.9597964890
 H         -2.8444198317        2.7089830017        0.4216894140
 H         -2.3921124440        1.8407244313        1.9038207007
 H         -4.5963202609       -0.1022780198       -2.8034149709
 H         -5.2451711392        1.5407715283       -2.7224993658
 H         -3.2581132572        2.3616960718       -1.6168732209
 H         -2.7381831355        1.3911552652       -3.0061473553
 O         -1.8061400439       -0.5346798828       -1.8077064312
 C         -1.0350989122       -1.4786550868       -1.1482381223
 O         -0.5662610236       -2.3673784537       -1.8852560893
 H          1.3850859682       -0.1664647819        0.3556349212
 C          1.9444454911       -1.0515152447        0.0891895164
 C          1.3971011306       -2.3027240724        0.3447523829
 C          2.1372404514       -3.4302040607        0.0155037876
 C          3.3740531531       -3.2994965310       -0.5930450526
 C          3.8864632782       -2.0529484552       -0.9009209716
 C          3.1598513002       -0.9177046439       -0.5585379835
 N          3.6418509616        0.3683676056       -0.8420403543
 S          2.5690119151        1.6001666432       -1.2058433983
 O          1.4005146662        1.1280426518       -1.9118522834
 O          3.3795260928        2.5755920053       -1.9074295330
 C          2.1213100611        2.2761678326        0.3781909986
 C          0.8065108059        2.6161225034        0.6243051634
 C          0.4790665313        3.1863567678        1.8441292758
 C          1.4662829809        3.4002918152        2.7928906244
 C          2.7827932128        3.0526367885        2.5304159868
 C          3.1181165405        2.4895109280        1.3099838684
 H          4.1295592471        2.2098827041        1.0672035841
 H          3.5470193312        3.2188651866        3.2724505276
 H          1.2048553862        3.8389219292        3.7429167336
 H         -0.5448153937        3.4540076076        2.0487882608
 H          0.0642392055        2.4126333897       -0.1330489155
 H          4.4701532050        0.4013128599       -1.4182380527
 H          4.8348833548       -1.9545995564       -1.4066068156
 H          3.9374243042       -4.1832533912       -0.8517645713
 H          1.7402043031       -4.4111565216        0.2189374964
 C          0.0169489167       -2.3500800953        0.9522485630
 H          0.0802558782       -1.9912143900        1.9905574680
 C         -0.6025829134       -3.7314106326        0.9476124427
 C         -0.3181619067       -4.6922297827        2.0623609717
 C         -1.6672958350       -4.0500480088        1.9527610844
 H         -2.5056047140       -4.6550437015        1.6413963888
 H         -1.9263034215       -3.2764918722        2.6608379454
 H         -0.2322773161       -5.7425367105        1.8281370563
 H          0.3370690619       -4.3600347956        2.8530805126
 H         -0.7251307413       -4.1267902580       -0.0546823090
 O         -1.2493027181       -0.1174469322        2.2014462593
