  62
        -98.93819272
 C          2.6660653186        1.1853741664        0.2218270773
 C          3.1051827413        0.2630564336        1.2065488315
 C          4.3267568969       -0.4910306099        0.9013528620
 C          4.9625644266       -0.2622713156       -0.2619522207
 C          6.1899133976       -0.9895836124       -0.7275574878
 C          5.8205130259       -2.2264919143       -1.5582586581
 C          4.7693902279       -3.1204872270       -0.9003189532
 H          3.8232726475       -2.5770700790       -0.8443973903
 H          4.6099812471       -3.9752956326       -1.5610849943
 C          5.1488808193       -3.6208718700        0.5004619297
 H          6.2232596533       -3.5134888015        0.6539822128
 H          4.9168965044       -4.6859259503        0.5666767635
 C          4.4027473750       -2.9309777068        1.6440926555
 H          3.3278510572       -2.9540482348        1.4473055989
 H          4.5803390277       -3.5020944508        2.5593218525
 C          4.8092514507       -1.4789825624        1.9257416349
 H          4.3451858232       -1.1808883662        2.8705422987
 H          5.8933372229       -1.4159892205        2.0409183502
 H          5.4302876260       -1.8917988033       -2.5221471488
 H          6.7289834435       -2.8033142034       -1.7410839041
 H          6.7817014018       -1.2827509775        0.1374850613
 H          6.7785687176       -0.3098503250       -1.3459383390
 O          4.5235696644        0.6372729212       -1.1757220864
 C          3.3607443350        1.3736984608       -0.9742396459
 O          3.0854463991        2.1348406753       -1.9183366029
 O          2.5020775158        0.0878933027        2.3002905084
 C          1.4054170837        1.9669036707        0.5452160629
 C          0.1781622444        1.2710842959        0.0140240998
 C          0.0841831760        0.8798055929       -1.3179474188
 C         -1.0589966788        0.2567116558       -1.7848206514
 C         -2.1252480765        0.0057956970       -0.9384774011
 C         -2.0411058700        0.3886250280        0.3930705740
 C         -0.8930921015        1.0184469787        0.8582663049
 H         -0.8268726664        1.3052345739        1.8993984263
 N         -3.1113834645        0.1214319856        1.2608620783
 S         -4.6663092288        0.5274641508        0.7772075089
 O         -4.6576066229        1.6493704892       -0.1320653798
 O         -5.4079130289        0.7005265753        2.0068280937
 C         -5.2532488073       -0.9330866544       -0.0538665629
 C         -5.7616911649       -0.8389239569       -1.3344666289
 C         -6.2267133894       -1.9871719471       -1.9567475007
 C         -6.1764098056       -3.2018240839       -1.2902610420
 C         -5.6645223847       -3.2788945739       -0.0033793935
 C         -5.1988383336       -2.1348726467        0.6245902457
 H         -4.7963843388       -2.1526099535        1.6237391588
 H         -5.6268222550       -4.2254488213        0.5114080354
 H         -6.5384000840       -4.0939751117       -1.7765093942
 H         -6.6250929503       -1.9294499750       -2.9570157812
 H         -5.7763933875        0.1259731704       -1.8160450382
 H         -2.9435946734        0.3947854816        2.2182039901
 H         -3.0166159038       -0.4799306012       -1.3004224570
 H         -1.1205174688       -0.0385084710       -2.8214058851
 H          0.9131348641        1.0764538301       -1.9811987452
 H          1.3431828603        1.9431037772        1.6452110685
 C          1.4803882835        3.4311376531        0.1349213778
 C          0.6844358370        4.0291287709       -0.9816829092
 C          0.3370986111        4.3545263561        0.4381588562
 H          0.5533504980        5.3426872333        0.8149537578
 H         -0.5644240629        3.9159823672        0.8406889473
 H          1.1645367780        4.7814620285       -1.5883544537
 H          0.0143132255        3.3903242518       -1.5346961179
 H          2.4779138389        3.8351458694        0.2763950209
