  62
        -98.94625633
 C          1.6108055385        1.4302686362       -0.0533372313
 C          2.5592967715        0.8979222313        0.8504986887
 C          3.2300375394       -0.3369897163        0.4231965663
 C          2.9075052152       -0.8840515205       -0.7636043070
 C          3.5068791742       -2.1462449942       -1.3120148466
 C          2.6864723985       -3.3813025179       -0.9170580726
 C          2.3299182453       -3.4370927843        0.5679133703
 H          1.6611492978       -2.6061737692        0.8051040950
 H          1.7679222390       -4.3582847214        0.7354622057
 C          3.5408560488       -3.4029491089        1.5111626607
 H          3.4011078591       -4.1571974242        2.2885631564
 H          4.4451261545       -3.6683455954        0.9621969465
 C          3.7579584575       -2.0666279738        2.2235247804
 H          4.4946312607       -2.2207574118        3.0166573789
 H          2.8272168064       -1.7500522635        2.7017392336
 C          4.2659571650       -0.9158110097        1.3454760643
 H          4.5662927685       -0.0994650700        2.0091397339
 H          5.1447293675       -1.2416226164        0.7851497693
 H          1.7582941662       -3.3730534567       -1.4897553970
 H          3.2522525708       -4.2737009051       -1.1904119494
 H          3.5289048041       -2.0687974959       -2.4002142543
 H          4.5274016882       -2.2421104349       -0.9457621679
 O          1.9686664907       -0.3600791106       -1.5915197038
 C          1.2965966060        0.8086356952       -1.2626240887
 O          0.4669764351        1.1823714546       -2.1099964723
 O          2.8339042042        1.4317783229        1.9602282524
 C          0.8993591056        2.7229943736        0.3017381808
 C         -0.5936931090        2.5108250456        0.3249133780
 C         -1.4974221223        3.3691151846       -0.2865898004
 C         -2.8568259404        3.1087191443       -0.2386622008
 C         -3.3449901847        1.9973300998        0.4226442656
 C         -2.4493635500        1.1345051857        1.0431457271
 C         -1.0896710137        1.3982709632        0.9948970048
 H         -0.3945041005        0.7241734304        1.4808568471
 N         -2.9357836120       -0.0020200095        1.7240334264
 S         -3.7614915282       -1.1534709831        0.8317466837
 O         -4.9397237460       -0.5481842357        0.2665177297
 O         -3.9799631978       -2.2551819812        1.7410261178
 C         -2.6444985202       -1.6536346500       -0.4652450068
 C         -1.9685384744       -2.8504801131       -0.3358013908
 C         -1.0795120275       -3.2281315030       -1.3284960457
 C         -0.8684117901       -2.3966469387       -2.4180304369
 C         -1.5487621142       -1.1942359168       -2.5298972639
 C         -2.4500205625       -0.8178839834       -1.5470725257
 H         -2.9972307997        0.1084494216       -1.6097426102
 H         -1.3670812617       -0.5378047575       -3.3649396138
 H         -0.1687002253       -2.6821741917       -3.1882551092
 H         -0.5557641366       -4.1675703450       -1.2469550169
 H         -2.1610245834       -3.4646338227        0.5293506766
 H         -2.2288567771       -0.4636556184        2.2791912288
 H         -4.3985677995        1.7721142977        0.4529913115
 H         -3.5467657379        3.7823181257       -0.7240068928
 H         -1.1388812802        4.2408021737       -0.8085253286
 H          1.2265031287        2.9672099573        1.3236868328
 C          1.3399033308        3.8352293541       -0.6271212892
 C          1.3495495252        5.2574222319       -0.1542828681
 C          2.6416743958        4.5270660575       -0.3594185799
 H          3.2634351854        4.7999746735       -1.1988527392
 H          3.1989384493        4.2146419402        0.5117848463
 H          1.0863276792        6.0362354080       -0.8540812921
 H          1.0324591312        5.4499476518        0.8595289141
 H          1.0820982590        3.6392575009       -1.6618770836
