  62
        -98.93811804
 C          1.9480986658        1.1022641046       -0.1926456005
 C          2.3109765777       -0.2082584992       -0.5932793587
 C          3.4987950156       -0.7684166689        0.0743699614
 C          4.1452171355       -0.0629072338        1.0178899812
 C          5.3482217872       -0.5156251511        1.8004353676
 C          6.6831094240       -0.3047386497        1.0729871112
 C          6.9455765222       -1.2563092944       -0.0949767358
 H          7.9965174521       -1.1449213923       -0.3690808809
 H          6.8029022677       -2.2851691970        0.2369092687
 C          6.0816643253       -0.9897207356       -1.3355661447
 H          5.6499616287        0.0116737339       -1.2705290371
 H          6.7102129294       -1.0102624600       -2.2287050183
 C          4.9545594675       -1.9996839215       -1.5520921077
 H          5.3787709575       -2.9866054385       -1.7503012920
 H          4.3843284848       -1.6955355982       -2.4336279446
 C          3.9771754322       -2.1162440357       -0.3752558259
 H          3.1043462888       -2.6841261094       -0.7081664249
 H          4.4456059318       -2.6497857707        0.4518085705
 H          6.7283438962        0.7277222838        0.7190556224
 H          7.4792609393       -0.4392563163        1.8087965552
 H          5.3597851854        0.0745449454        2.7193166257
 H          5.2383734168       -1.5678259074        2.0648155638
 O          3.7495710518        1.1829421649        1.3928700993
 C          2.6601698304        1.7913602614        0.7938814560
 O          2.4247985874        2.9416139826        1.2163144081
 H         -0.3135074081       -0.4870725656        0.1604744468
 C         -0.8536003037        0.3796853538        0.5101901093
 C         -0.4502727860        1.6550552886        0.1359938905
 C         -1.1632217157        2.7491126151        0.6149845157
 C         -2.2500401010        2.5760950040        1.4527668290
 C         -2.6596771722        1.3040667906        1.8085511516
 C         -1.9576975368        0.2033605048        1.3316041903
 N         -2.3676217475       -1.1120644973        1.6509475176
 S         -3.0909351180       -1.9535342558        0.3934130026
 O         -3.5518865896       -3.1956323748        0.9729141974
 O         -2.1798748288       -2.0477501448       -0.7147126265
 C         -4.4922210112       -0.9378532098       -0.0462093080
 C         -5.7156794485       -1.1920165048        0.5424094597
 C         -6.7833984101       -0.3557423860        0.2582581693
 C         -6.6066494136        0.7221112786       -0.5961917700
 C         -5.3711999889        0.9660198568       -1.1763490745
 C         -4.3004882014        0.1304901799       -0.8997603098
 H         -3.3275988819        0.2855496157       -1.3375855743
 H         -5.2335569798        1.8033717830       -1.8412585505
 H         -7.4366592626        1.3755895759       -0.8135519746
 H         -7.7461213997       -0.5450937044        0.7050526029
 H         -5.8069059389       -2.0439413281        1.1968841999
 H         -2.9744307440       -1.1556814183        2.4590018013
 H         -3.5109692306        1.1602196652        2.4571999121
 H         -2.7850131149        3.4358175493        1.8253722344
 H         -0.8425559530        3.7434002755        0.3413244604
 C          0.7531340139        1.8611329292       -0.7488095764
 H          1.0284983800        2.9259601198       -0.6719436429
 C          0.4679637196        1.5910851711       -2.2182035994
 C         -0.5616464589        0.6251080470       -2.7113657862
 C         -0.8031594907        2.0976249565       -2.8361708679
 H         -0.7592267977        2.5461232141       -3.8170978705
 H         -1.5295877708        2.5462070933       -2.1747534266
 H         -0.3211745891        0.0592428047       -3.5989939197
 H         -1.1197996162        0.0474357850       -1.9913471312
 H          1.3698407700        1.6710760062       -2.8175099631
 O          1.7034075711       -0.8931092528       -1.4535900873
