  62
        -98.93800492
 C          2.4257879489        0.4096476982        0.4708932874
 C          3.2224671107        0.3628575299       -0.7003313135
 C          4.3085624008       -0.6295614877       -0.6890037529
 C          4.4633407109       -1.4522089153        0.3628026142
 C          5.5024232369       -2.5315449271        0.5013930214
 C          6.8605690130       -2.0284199897        1.0093637645
 C          7.6737586545       -1.2183693148       -0.0011435111
 H          8.6818287287       -1.1178523764        0.4060962737
 H          7.7538694034       -1.7781257965       -0.9334888524
 C          7.1151111054        0.1827965552       -0.2860711012
 H          6.4129125148        0.4621043502        0.5029934307
 H          7.9289923710        0.9110528391       -0.2617388031
 C          6.4201748971        0.3250915042       -1.6403256186
 H          7.1469343592        0.1766762685       -2.4420785553
 H          6.0330249016        1.3440171525       -1.7215684730
 C          5.2507960996       -0.6446245891       -1.8549949969
 H          5.6254229907       -1.6529059339       -2.0293283588
 H          4.6933586173       -0.3194029701       -2.7366951694
 H          7.4464523993       -2.9050046872        1.2953366001
 H          6.6972487280       -1.4304732943        1.9090474452
 H          5.1090394474       -3.2497001012        1.2240502163
 H          5.6351881671       -3.0381013592       -0.4549459817
 O          3.6487471429       -1.4050986225        1.4511280277
 C          2.6354143454       -0.4671979443        1.5388607386
 O          1.9930313105       -0.5089073354        2.6085647127
 O          3.0545881422        1.0935561483       -1.7087002261
 C          1.2855150530        1.3965637850        0.6621448950
 C          0.0004457315        0.8361878003        0.1094464845
 C         -0.0892727422        0.3950311315       -1.2073416989
 C         -1.2798132296       -0.1114396379       -1.6954216023
 C         -2.3988083848       -0.1957547422       -0.8848650725
 C         -2.3189115109        0.2365835920        0.4316150373
 C         -1.1234564635        0.7515814592        0.9175665628
 H         -1.0620483780        1.0772671103        1.9476586219
 N         -3.4455327964        0.1352345231        1.2639671676
 S         -4.9115693826        0.7341835196        0.7075740118
 O         -4.7148302077        1.8151184310       -0.2299201910
 O         -5.6676986277        1.0458510096        1.9005727326
 C         -5.6637312318       -0.6573449673       -0.1088600931
 C         -6.0777740649       -0.5439619936       -1.4215004595
 C         -6.6727949800       -1.6365316539       -2.0331041094
 C         -6.8431144503       -2.8159626003       -1.3245390000
 C         -6.4237795991       -2.9126744371       -0.0059033994
 C         -5.8291962789       -1.8240301015        0.6115911360
 H         -5.4933294226       -1.8576073588        1.6346424018
 H         -6.5577585366       -3.8317061787        0.5416399551
 H         -7.3056371236       -3.6650466193       -1.8025560118
 H         -7.0000009040       -1.5633163023       -3.0578275724
 H         -5.9206149627        0.3914763433       -1.9346588447
 H         -3.2772084752        0.4180431906        2.2184634111
 H         -3.3273954984       -0.5921161877       -1.2619372462
 H         -1.3374246146       -0.4475442903       -2.7196422841
 H          0.7824068474        0.4592723666       -1.8407685421
 H          1.1640212428        1.4821863810        1.7539067568
 C          1.6081939583        2.7899604570        0.1385488943
 C          0.9245499973        3.4262159022       -1.0302582815
 C          0.6340541764        3.9103950299        0.3564260439
 H          1.0101033402        4.8746008908        0.6634780508
 H         -0.3275990448        3.6570890855        0.7789015816
 H          1.5244646143        4.0419339923       -1.6827821072
 H          0.1564445889        2.8700261375       -1.5436843122
 H          2.6581709414        3.0334196107        0.2655157858
