  62
        -98.94576107
 C          2.3136499199        0.9598065531        0.2807175042
 C          2.1365953650        0.0736364167       -0.8095249992
 C          2.5981915692       -1.3055983955       -0.5929611669
 C          3.1090351572       -1.6510122803        0.6028837954
 C          3.5525727058       -3.0346697373        0.9786146752
 C          2.4012879737       -3.8406694223        1.5969831357
 C          1.1093705466       -3.8047141699        0.7797404711
 H          0.3835740030       -4.4358593299        1.2972894266
 H          0.7113762786       -2.7870560833        0.7825713038
 C          1.2656267908       -4.2811584366       -0.6710628620
 H          2.1899981152       -4.8503201050       -0.7754585243
 H          0.4429142575       -4.9574415578       -0.9109409714
 C          1.2410470418       -3.1580681199       -1.7090636242
 H          0.3679451085       -2.5225075743       -1.5435774431
 H          1.1378200216       -3.6113400533       -2.6981434474
 C          2.4837786623       -2.2609318002       -1.7475545845
 H          3.3826711186       -2.8760082316       -1.8260652498
 H          2.4133371279       -1.6374921489       -2.6435144512
 H          2.7303966499       -4.8747618526        1.7148817324
 H          2.1908194330       -3.4371772331        2.5903805856
 H          3.9306597372       -3.5419747466        0.0931421905
 H          4.3585124424       -2.9509621012        1.7097084829
 O          3.2319910341       -0.7786985930        1.6370561879
 C          2.8426974406        0.5440129886        1.5018573753
 O          3.0065137001        1.2365769828        2.5280783208
 H         -0.0037295364        1.2715474359        1.5934169441
 C         -0.4363215559        1.8285142634        0.7707233890
 C          0.4102535152        2.5002438114       -0.1035691943
 C         -0.1525683108        3.2163132771       -1.1508166592
 C         -1.5273053683        3.2530119984       -1.3129047640
 C         -2.3665560514        2.5903298631       -0.4368761441
 C         -1.8139756736        1.8690872430        0.6150988520
 N         -2.6452043219        1.2133079060        1.5385955683
 S         -3.9646265967        0.3151437711        1.0463138751
 O         -4.9466351883        1.1911000580        0.4589588458
 O         -4.3761402708       -0.4081569624        2.2275039164
 C         -3.3564565155       -0.8270008899       -0.1792011851
 C         -2.8397725885       -2.0329190905        0.2523296905
 C         -2.3507657790       -2.9273555938       -0.6849009209
 C         -2.3741425654       -2.5965641300       -2.0315283037
 C         -2.8877688711       -1.3786057034       -2.4480283334
 C         -3.3873539042       -0.4832280494       -1.5155365617
 H         -3.8082861016        0.4651149121       -1.8047930335
 H         -2.9008996542       -1.1228359168       -3.4951751151
 H         -1.9901919847       -3.2931984890       -2.7599369277
 H         -1.9500607958       -3.8749918118       -0.3633053912
 H         -2.8482887229       -2.2557132858        1.3073806291
 H         -2.1428718193        0.7335727797        2.2704756541
 H         -3.4384209644        2.6281924390       -0.5429853070
 H         -1.9525549133        3.8130397789       -2.1318824599
 H          0.4829408441        3.7435817086       -1.8425276308
 C          1.8961739402        2.4141388297        0.1504217058
 H          2.0954579803        2.8752334867        1.1290277160
 C          2.7384070790        3.1130095575       -0.8956281228
 C          2.9695203568        4.5907489077       -0.8087929166
 C          4.0856591207        3.6383016648       -0.5043769504
 H          4.8984464040        3.5510824690       -1.2096710095
 H          4.3876916652        3.5128579016        0.5255997515
 H          2.5166123343        5.1201383147        0.0159287859
 H          3.0198162739        5.1607741866       -1.7241522948
 H          2.6438564046        2.6643358918       -1.8773887687
 O          1.6243703090        0.4129519363       -1.9067759588
