  62
        -98.94141832
 C          2.4955528095        0.9926971091       -0.5170029401
 C          3.4069309896        0.3783051892        0.3832357299
 C          3.8153042894       -0.9930466309        0.0669433101
 C          3.3381542192       -1.5892694510       -1.0402041097
 C          3.6636615991       -2.9806534012       -1.5102955595
 C          2.8113604090       -4.0721232210       -0.8481684392
 C          3.1547999692       -4.3671525307        0.6125163208
 H          2.6440518991       -5.2941783306        0.8802384410
 H          4.2265558892       -4.5462338908        0.7042438707
 C          2.7281973094       -3.2696298405        1.5978121307
 H          1.9867212194       -2.6200757205        1.1244208006
 H          2.2388237694       -3.7258508103        2.4616188608
 C          3.8767754295       -2.4116547505        2.1297413304
 H          3.4535844997       -1.6437169204        2.7824860803
 H          4.5482661395       -3.0310506005        2.7284475404
 C          4.6998136595       -1.7091804108        1.0420676902
 H          5.3318478893       -2.4298774809        0.5238923502
 H          5.3370033096       -0.9631600008        1.5230387500
 H          1.7583777091       -3.7884431609       -0.9231199091
 H          2.9507991489       -4.9896139911       -1.4246009291
 H          3.4725556489       -2.9988485813       -2.5853637895
 H          4.7203663391       -3.1884489512       -1.3401617696
 O          2.4886234192       -0.9616988411       -1.8926811197
 C          2.0182989593        0.3195203490       -1.6414795899
 O          1.2045181593        0.7181999589       -2.5007955999
 O          3.8624595097        0.9579938893        1.4048067498
 C          2.0310932897        2.3940746492       -0.1523305603
 C          0.7120437198        2.3187009595        0.5799923299
 C          0.5972427699        2.7313583797        1.9019147198
 C         -0.6037280700        2.6052723600        2.5791142300
 C         -1.7108798201        2.0572315599        1.9563092802
 C         -1.6025944003        1.6374078597        0.6376488203
 C         -0.4053270704        1.7829884495       -0.0449959599
 H         -0.3289659905        1.4438750193       -1.0679897798
 N         -2.7219984704        1.0411738997        0.0012539505
 S         -3.0468666905       -0.5345193702        0.5294458308
 O         -3.0832324403       -0.5363415299        1.9694489008
 O         -2.1280173906       -1.4695200304       -0.0887317791
 C         -4.6897965106       -0.7696590302       -0.1182594290
 C         -5.7423460405       -0.1560333500        0.5331763711
 C         -7.0219144905       -0.3012074199        0.0223650812
 C         -7.2260689307       -1.0517878601       -1.1262009486
 C         -6.1594104109       -1.6611990003       -1.7689175086
 C         -4.8764245208       -1.5185654404       -1.2633225788
 H         -4.0179825009       -1.9785693305       -1.7265741088
 H         -6.3203464310       -2.2455127705       -2.6606650085
 H         -8.2228816108       -1.1641976401       -1.5224311085
 H         -7.8541572604        0.1704364802        0.5193928812
 H         -5.5363026303        0.4111285602        1.4254821409
 H         -2.5702279505        0.9865840995       -0.9992266195
 H         -2.6424594401        1.9265834601        2.4811256903
 H         -0.6756445098        2.9291441401        3.6063351499
 H          1.4648375900        3.1320826497        2.4057779397
 H          2.7834627198        2.7711653793        0.5534995496
 C          1.9554797196        3.3472766290       -1.3277518904
 C          1.9922401398        4.8221940691       -1.0662122907
 C          3.1667406197        4.1443310189       -1.7040394007
 H          3.3611183496        4.3193926887       -2.7514146108
 H          4.0596558397        4.0053190189       -1.1121220108
 H          1.3777129398        5.4675219990       -1.6746651007
 H          2.0894927199        5.1452196892       -0.0408525608
 H          1.3256116095        2.9922245789       -2.1326424203
