  62
        -98.93486164
 C         -1.5633232200       -1.3411021368        0.0947378803
 C         -2.8270874240       -1.2043544193        0.7244155837
 C         -3.6790319955       -0.0801486879        0.2956961448
 C         -3.1970490472        0.7924920694       -0.6064940118
 C         -3.8597161606        2.0140579066       -1.1908941328
 C         -4.6164621255        2.9234173337       -0.2107017899
 C         -6.1356401859        2.8703589972       -0.3814752835
 H         -6.5635012084        3.7982025589        0.0048259227
 H         -6.3644203783        2.8266884016       -1.4484558380
 C         -6.8302178183        1.7110918531        0.3312476966
 H         -6.8194352517        1.8905472574        1.4085653184
 H         -7.8757091548        1.7071011959        0.0138256851
 C         -6.2329884986        0.3272537417        0.0675371281
 H         -5.9611377766        0.2222989592       -0.9823240626
 H         -7.0085697306       -0.4144867118        0.2703786950
 C         -5.0266621154       -0.0025140636        0.9595306663
 H         -4.9710027505        0.7080713698        1.7893012551
 H         -5.1670694961       -0.9860960633        1.4186048276
 H         -4.3416757316        2.6759075217        0.8134627807
 H         -4.2942968386        3.9499209778       -0.3927821043
 H         -3.0530227590        2.5739248511       -1.6695114341
 H         -4.5308695924        1.6934242479       -1.9917590791
 O         -1.9613028188        0.6470171972       -1.1590696143
 C         -1.1226244250       -0.4152397790       -0.8516749785
 O         -0.0527357265       -0.3947103539       -1.4868126736
 O         -3.2353429748       -1.9978484192        1.6140860115
 C         -0.6824913691       -2.4906710498        0.5574368947
 C          0.6627635690       -1.9481543929        0.9627921988
 C          0.8368289149       -1.4023297530        2.2309629419
 C          2.0420498735       -0.8296431403        2.5938158613
 C          3.0859180076       -0.7584669576        1.6877696844
 C          2.9106158455       -1.2792204072        0.4123171400
 C          1.7182260622       -1.9005021712        0.0664980681
 H          1.5945193990       -2.3030070274       -0.9264549794
 N          3.9364665450       -1.1496889914       -0.5386990423
 S          4.7713933881        0.2978690134       -0.5913308178
 O          5.1815649759        0.4517979678       -1.9706218689
 O          5.8484651381        0.2579664073        0.3697149250
 C          3.6341729627        1.5999210628       -0.1336880525
 C          2.3563762856        1.6177071496       -0.6553969742
 C          1.5036018342        2.6493333044       -0.2948101510
 C          1.9384104546        3.6460177550        0.5640269599
 C          3.2280338600        3.6180249085        1.0721947640
 C          4.0833058638        2.5857024825        0.7234803344
 H          5.0889885316        2.5177556348        1.1059895266
 H          3.5668049184        4.3931309919        1.7406731302
 H          1.2677931882        4.4448484499        0.8394432526
 H          0.4982445253        2.6523552391       -0.6865669047
 H          2.0070294487        0.8338081648       -1.3086824833
 H          3.6615911291       -1.4388987694       -1.4663464084
 H          4.0280306159       -0.3023950143        1.9470048890
 H          2.1680562130       -0.4221913746        3.5851864941
 H          0.0111105279       -1.4253327726        2.9282931552
 H         -1.1864575776       -2.8710890237        1.4597859435
 C         -0.5829141131       -3.6620992924       -0.4080660188
 C         -1.8053319478       -4.1591218075       -1.1191628205
 C         -0.6921650904       -3.5255899207       -1.8957948211
 H         -0.0709180424       -4.1620189986       -2.5096549599
 H         -0.8460801601       -2.5416469119       -2.3091181436
 H         -1.9579067607       -5.2241405581       -1.2072142517
 H         -2.7171170828       -3.5951065857       -0.9855882516
 H          0.1054257637       -4.4192399451       -0.0439541679
