  62
        -98.94437469
 C         -1.8580435344       -1.0375944876       -0.2302870426
 C         -2.4001682501        0.0983226365       -0.8779837963
 C         -3.8634701245        0.2291454122       -0.8162615893
 C         -4.5861227255       -0.7205215411       -0.1945111101
 C         -6.0748302028       -0.6815400584       -0.0087626612
 C         -6.4499455773       -0.0015598467        1.3155833918
 C         -5.7504039050        1.3388334272        1.5416457608
 H         -6.1133614318        1.7390457816        2.4908060550
 H         -4.6773833347        1.1675906159        1.6541372684
 C         -5.9822196407        2.3714120970        0.4297140224
 H         -6.8517746667        2.0876294389       -0.1642672890
 H         -6.2047713773        3.3368032272        0.8891382992
 C         -4.7840821758        2.5856049614       -0.4973321237
 H         -4.9753647024        3.4778955751       -1.0995320671
 H         -3.8880888451        2.7794984695        0.0980946933
 C         -4.4766529932        1.4370841833       -1.4665658315
 H         -5.3810517115        1.1649186565       -2.0146106538
 H         -3.7347193594        1.7987102027       -2.1847393450
 H         -6.1811640291       -0.6706672740        2.1362473652
 H         -7.5316813888        0.1426575850        1.3352749197
 H         -6.5264863554       -0.1495247563       -0.8436679220
 H         -6.4474431180       -1.7071764606        0.0013363692
 O         -4.0300509021       -1.8130716320        0.3888045522
 C         -2.6565331589       -1.9924469614        0.3986320841
 O         -2.2744038908       -3.0216451764        0.9913121566
 H          1.8515587568        0.1448610123       -1.1496383033
 C          1.4489922319        0.5324332869       -0.2291067891
 C          0.3405112557       -0.0512629547        0.3632273368
 C         -0.1429233367        0.4922841566        1.5516003311
 C          0.4456819660        1.6085561686        2.1111006338
 C          1.5431872097        2.1984380675        1.5080819759
 C          2.0441897165        1.6555771141        0.3323563489
 N          3.1563508512        2.2311038334       -0.3011554227
 S          4.3422708722        1.2435399843       -0.9388130415
 O          5.5254310700        2.0760842851       -0.9752380714
 O          3.9210930661        0.6942500718       -2.2020894897
 C          4.5457994330       -0.0585796354        0.2641067533
 C          4.9196359074        0.2905341084        1.5472175725
 C          5.0523112286       -0.7048191855        2.5010498060
 C          4.8101292501       -2.0264886141        2.1580509730
 C          4.4433871738       -2.3612614476        0.8641960202
 C          4.3075799714       -1.3688380508       -0.0937408513
 H          4.0205758171       -1.5858679788       -1.1095372747
 H          4.2598830207       -3.3901710646        0.5978676532
 H          4.9098597497       -2.8005891904        2.9025163130
 H          5.3412403198       -0.4487905916        3.5076437328
 H          5.1111208409        1.3256155102        1.7786916824
 H          3.5520990202        3.0252452180        0.1797981335
 H          1.9995737310        3.0772538074        1.9374525213
 H          0.0496878584        2.0239624975        3.0255382350
 H         -1.0010471713        0.0319679414        2.0228262823
 C         -0.3555387966       -1.2557773454       -0.2213254467
 H         -0.1763580905       -2.1135471610        0.4436293088
 C          0.1190245617       -1.6135085248       -1.6144439155
 C          1.2833997478       -2.5360856032       -1.8052278889
 C         -0.1043249438       -3.0065878815       -2.1187871815
 H         -0.3855897771       -3.1421996275       -3.1523711475
 H         -0.5726303783       -3.7073879075       -1.4427591379
 H          1.9597097124       -2.3460867605       -2.6257664880
 H          1.7567940196       -2.9276557052       -0.9177177829
 H         -0.0119852463       -0.8018279457       -2.3215256864
 O         -1.7018970692        0.9600636753       -1.4732919973
