  62
        -98.94509654
 C         -2.5601622471        0.0196451613       -0.3671850223
 C         -2.2232824986       -0.5933733999        0.8638589155
 C         -1.9285102566       -2.0317406145        0.8037250481
 C         -2.0095369841       -2.6734074355       -0.3756040983
 C         -1.7644964575       -4.1412670313       -0.5757018108
 C         -0.3115989433       -4.4401465550       -0.9650148081
 C          0.7271171189       -3.7825249833       -0.0565886110
 H          1.7094017520       -4.1288247893       -0.3874357852
 H          0.7087237024       -2.7005204655       -0.2050128137
 C          0.5575770687       -4.0857124880        1.4384094955
 H         -0.0514924740       -4.9810471193        1.5721282010
 H          1.5422047003       -4.2952763068        1.8613286167
 C         -0.0386883284       -2.9327885714        2.2493581536
 H          0.1511842898       -3.1249452955        3.3089753827
 H          0.4718785826       -2.0040340990        1.9808945141
 C         -1.5487288615       -2.7136118839        2.0872179737
 H         -2.0753984375       -3.6648367395        2.1937148364
 H         -1.8792491405       -2.0450807496        2.8876323345
 H         -0.1448683085       -4.0847336821       -1.9848425770
 H         -0.1725294727       -5.5234508978       -0.9552493763
 H         -2.0196761248       -4.6687688122        0.3416698024
 H         -2.4213711955       -4.4867845574       -1.3766100757
 O         -2.3295617520       -2.0484742346       -1.5396065736
 C         -2.5835339637       -0.6870343429       -1.5672288167
 O         -2.8291757139       -0.2319794230       -2.7055762718
 H         -0.2625480812        0.9494468287       -0.6248551077
 C         -0.4214962974        1.8573065629       -0.0608947100
 C         -1.7178242151        2.3061337951        0.1549450705
 C         -1.8994274395        3.4919156535        0.8553320220
 C         -0.8071174051        4.1944568897        1.3356162905
 C          0.4791854934        3.7265121919        1.1455251254
 C          0.6710453380        2.5356329019        0.4509592391
 N          1.9619883802        2.0022553150        0.3045487267
 S          2.2507726429        0.6185363970       -0.5960119701
 O          1.9858890493        0.8513524878       -2.0014258223
 O          1.5614329476       -0.4869363911        0.0159612359
 C          4.0063138971        0.4575014729       -0.3340599025
 C          4.4514524354       -0.2204641980        0.7846105621
 C          5.8153034018       -0.3210778749        1.0091868878
 C          6.7066495520        0.2558379130        0.1168025314
 C          6.2455450746        0.9307603659       -1.0035066081
 C          4.8826706646        1.0348058443       -1.2334447456
 H          4.4788957663        1.5381930898       -2.0972518225
 H          6.9408211010        1.3743654681       -1.6977936504
 H          7.7675666579        0.1760079336        0.2937396333
 H          6.1767644405       -0.8484422113        1.8771596012
 H          3.7203292812       -0.6587127173        1.4441985395
 H          2.6992424183        2.6883307487        0.2431438135
 H          1.3281794104        4.2654012489        1.5361061567
 H         -0.9619459749        5.1172705120        1.8738763174
 H         -2.8961043391        3.8652693697        1.0257536341
 C         -2.8651251054        1.5050135807       -0.4135145105
 H         -2.9648991454        1.7621215841       -1.4796371021
 C         -4.1833113214        1.7862271025        0.2814885707
 C         -5.0897024737        2.8725673947       -0.2122586936
 C         -5.4581192888        1.4357621928       -0.4234377755
 H         -6.2690945131        1.0173491564        0.1533694366
 H         -5.3722971922        1.0238748567       -1.4189045294
 H         -5.6536826060        3.4417745946        0.5113022832
 H         -4.7681350381        3.4413957203       -1.0717614639
 H         -4.1336929920        1.6021959058        1.3486585674
 O         -2.1893152548        0.0256233894        1.9599235902
