  62
        -98.93823405
 C         -1.7961738202       -1.0656495193       -0.1429062198
 C         -2.9699744203       -1.0680364989        0.6563695501
 C         -4.1799758201       -0.4684552890        0.0727753097
 C         -4.1269388500        0.0347280706       -1.1719015405
 C         -5.2356019498        0.6502303004       -1.9881842608
 C         -6.1899282498        1.6151047907       -1.2720382413
 C         -5.5478768298        2.4541938511       -0.1574992715
 H         -4.4608524098        2.3635808010       -0.1980935714
 H         -5.7920905897        3.5058085011       -0.3194099019
 C         -6.0396166100        2.0677191617        1.2395383986
 H         -5.8510136799        2.9010862119        1.9206776783
 H         -7.1205702000        1.9161783718        1.2005200786
 C         -5.3822034002        0.8292882319        1.8476476291
 H         -5.8981480603        0.6005382023        2.7832473392
 H         -4.3416764502        1.0496021318        2.1020227591
 C         -5.3893867002       -0.4271950685        0.9616160996
 H         -5.3126839704       -1.2996254082        1.6161354899
 H         -6.3116769002       -0.5016483886        0.3906097495
 H         -7.0289664599        1.0579053310       -0.8577941411
 H         -6.6001317997        2.2776129905       -2.0361891415
 H         -5.8170489299       -0.1603790297       -2.4371797705
 H         -4.7307469197        1.1731860700       -2.8041789610
 O         -2.9822368999        0.0147803902       -1.9078261804
 C         -1.7964953700       -0.5145243398       -1.4229299601
 O         -0.8507201999       -0.4189284802       -2.2328863100
 O         -3.0077701604       -1.5687936184        1.8113277302
 C         -0.5583741203       -1.6956155592        0.4723511905
 C          0.3870326298       -0.6634549191        1.0385672902
 C          0.7836479796       -0.7058762086        2.3697286802
 C          1.6890528297        0.2161171315        2.8669973500
 C          2.2158640799        1.1987450811        2.0481818096
 C          1.8173345000        1.2536425707        0.7191261196
 C          0.9172908899        0.3243182606        0.2209899999
 H          0.6202953300        0.3690056002       -0.8162727402
 N          2.3641475302        2.2399468803       -0.1316457007
 S          4.0275081302        2.1340504600       -0.3270757606
 O          4.6744969801        2.7020693204        0.8289356293
 O          4.3183959403        2.7693181495       -1.5926547208
 C          4.3473056200        0.3810127700       -0.4042116999
 C          4.9131201698       -0.2617945497        0.6777108204
 C          5.0793878397       -1.6363394797        0.6267430510
 C          4.6725771097       -2.3400655001       -0.4958178188
 C          4.1031782399       -1.6797663905       -1.5737715491
 C          3.9345440900       -0.3058347904       -1.5285583496
 H          3.4967755401        0.2391325493       -2.3501089399
 H          3.7833528699       -2.2280476208       -2.4456514489
 H          4.8016322296       -3.4104408501       -0.5322899284
 H          5.5201471396       -2.1541915694        1.4630641312
 H          5.2132579098        0.3243990206        1.5305582802
 H          1.9187606902        2.2540249100       -1.0389452808
 H          2.9303351899        1.9196684312        2.4116140494
 H          1.9882900496        0.1691024119        3.9027903400
 H          0.3708096595       -1.4637754883        3.0190270105
 H         -0.9332429404       -2.3004830688        1.3087266807
 C          0.1936354397       -2.6052929196       -0.4813596391
 C          1.0905674895       -3.6652753795        0.0802923314
 C         -0.1968552305       -4.0475683996       -0.5850291486
 H         -0.1604272404       -4.5216671100       -1.5543037884
 H         -1.0116418306       -4.3903627593        0.0361077115
 H          2.0165143595       -3.8757207198       -0.4309712484
 H          1.1508470794       -3.7517584891        1.1542538114
 H          0.5077006398       -2.1072172400       -1.3892108092
