  62
        -98.93838609
 C         -0.6610793496       -1.4006223287        0.2468213547
 C         -1.4313304487       -0.5968429627        1.1206989382
 C         -2.4413628777        0.2846275152        0.5060652531
 C         -2.5329536525        0.3393429332       -0.8352984704
 C         -3.4552378672        1.1167836331       -1.7514991175
 C         -4.5988034980        1.9473727763       -1.1767835146
 C         -5.7658865061        1.1203820263       -0.6334875376
 H         -6.3082511059        0.6942353225       -1.4812882177
 H         -6.4491707825        1.7885660700       -0.1053680111
 C         -5.3861244102       -0.0349033159        0.2898654653
 H         -4.7288698919       -0.7276807181       -0.2393109736
 H         -6.3002683392       -0.5825095498        0.5350042592
 C         -4.7234964278        0.3706105681        1.6040411737
 H         -4.6113227295       -0.5309735172        2.2130251572
 H         -5.3740938742        1.0594535141        2.1468331554
 C         -3.3364552663        1.0166565748        1.4650445855
 H         -2.8416511393        0.9666011116        2.4396142558
 H         -3.4229212773        2.0651548497        1.1939110143
 H         -4.9857503913        2.5608920195       -1.9946677601
 H         -4.2250976748        2.6306335051       -0.4200772958
 H         -3.8661009979        0.3856190186       -2.4556125339
 H         -2.8028942427        1.7692160485       -2.3399671211
 O         -1.6862904114       -0.3683187908       -1.6385392071
 C         -0.7492344820       -1.2572881297       -1.1374195151
 O         -0.0805617372       -1.8298944099       -2.0168259751
 O         -1.2866273783       -0.6159011306        2.3730318635
 C          0.3484602860       -2.3545239898        0.8591755158
 C          1.6856330907       -2.1875831399        0.1827055321
 C          2.4045078850       -3.2229344580       -0.3981653192
 C          3.6176906949       -2.9676339598       -1.0143147767
 C          4.1352718833       -1.6870956497       -1.0648854677
 C          3.4207357213       -0.6420960049       -0.4877942751
 C          2.2151247247       -0.9036916284        0.1390517171
 H          1.6635793395       -0.0953664281        0.5970780692
 N          3.8847510761        0.6761518860       -0.5682540187
 S          3.4443738214        1.8339432726        0.5416966234
 O          4.3351771227        2.9425822620        0.2699638046
 O          3.4776126315        1.3243196751        1.8934753582
 C          1.7865514137        2.3093675332        0.0996048612
 C          0.8934416160        2.6142682842        1.1074768155
 C         -0.3770791638        3.0502536394        0.7704923302
 C         -0.7320935866        3.1713961965       -0.5634311235
 C          0.1722539700        2.8513496511       -1.5640836220
 C          1.4468597358        2.4203941495       -1.2335929870
 H          2.1725899045        2.1638717793       -1.9875741102
 H         -0.1094017415        2.9366714240       -2.6016120307
 H         -1.7193770747        3.5186359949       -0.8233282013
 H         -1.0820472829        3.2891165150        1.5503005795
 H          1.2042878161        2.4926680111        2.1332615177
 H          4.8106975409        0.8050780417       -0.9458083412
 H          5.0759357034       -1.4903859142       -1.5560681995
 H          4.1666014981       -3.7793216243       -1.4674220782
 H          2.0080289174       -4.2247591626       -0.3907499203
 H          0.4571499476       -2.0056086506        1.9006667819
 C         -0.1210367098       -3.7998731755        0.9325623929
 C         -1.5809138332       -4.1389781260        0.9526131580
 C         -0.7452235743       -4.4975723228       -0.2374880317
 H         -0.5074942157       -5.5388745896       -0.3993356234
 H         -0.8692306956       -3.9308295900       -1.1466012921
 H         -1.9147630390       -4.9299448542        1.6074867920
 H         -2.2850638695       -3.3251583665        0.8565181842
 H          0.5170115292       -4.4008929707        1.5735348677
