  62
        -98.94341436
 C         -1.9651923405       -0.8639623489        0.0417680502
 C         -2.2184020099        0.1166540709        1.0285522505
 C         -2.4801225092        1.4743229112        0.5356766110
 C         -2.4301918792        1.7131887717       -0.7877492589
 C         -2.7169879985        3.0387809820       -1.4307048684
 C         -4.2024168585        3.1731421630       -1.7947250783
 C         -5.1528473086        2.8141158331       -0.6526095783
 H         -6.1709270485        2.9738336937       -1.0138694582
 H         -5.0531646891        1.7496444329       -0.4285836787
 C         -4.9331671881        3.6237640125        0.6328198220
 H         -4.3532376576        4.5203933423        0.4116189822
 H         -5.9036739679        3.9494549729        1.0127307021
 C         -4.2515722184        2.8475056017        1.7610690316
 H         -4.7752430589        1.9022943920        1.9245481213
 H         -4.3388378780        3.4336471515        2.6797939618
 C         -2.7622923686        2.5417288910        1.5555313714
 H         -2.2260372181        3.4603255908        1.3067257517
 H         -2.3647591987        2.1617778505        2.5017436313
 H         -4.3867529880        4.2000139132       -2.1153724079
 H         -4.4125475589        2.5099078134       -2.6368057785
 H         -2.4230895981        3.8355482716       -0.7499867382
 H         -2.1179380686        3.1132190020       -2.3398518384
 O         -2.1578421498        0.7512444318       -1.7055770593
 C         -1.9094456404       -0.5561694384       -1.3173419597
 O         -1.6636428509       -1.3340904382       -2.2593360800
 H          0.5102581196       -0.7225743103        0.3411286100
 C          0.7361872490       -1.7349644403        0.0381790497
 C         -0.2721633515       -2.6901434298        0.0328536394
 C          0.0472520678       -3.9877620398       -0.3471676611
 C          1.3411431476       -4.3091335504       -0.7200942213
 C          2.3379343181       -3.3518949709       -0.7251634110
 C          2.0272890588       -2.0477259409       -0.3517870105
 N          3.0058100294       -1.0425227314       -0.4034795403
 S          2.8007747402        0.4130851085        0.4104546603
 O          2.5587110102        0.1791528381        1.8179173702
 O          1.8221767206        1.2099035292       -0.2877720294
 C          4.4237391406        1.1152900777        0.1825726304
 C          4.7134269708        1.7381863179       -1.0167423194
 C          5.9821479411        2.2606571073       -1.2113602793
 C          6.9354283911        2.1514229365       -0.2096222294
 C          6.6299352408        1.5250217462        0.9892370504
 C          5.3628530506        0.9999856068        1.1900156803
 H          5.0759669804        0.5134320967        2.1083166101
 H          7.3717415909        1.4443787256        1.7672619603
 H          7.9216491513        2.5598673760       -0.3635447994
 H          6.2217422313        2.7507475375       -2.1411884492
 H          3.9368882208        1.8058522686       -1.7610599393
 H          3.9528865292       -1.3898207619       -0.3543943505
 H          3.3436815080       -3.6026371513       -1.0248170512
 H          1.5757914571       -5.3214161904       -1.0123214817
 H         -0.7178333126       -4.7468368694       -0.3531191613
 C         -1.6578320812       -2.2838076592        0.4752811496
 H         -1.6677231411       -2.2617547496        1.5766136697
 C         -2.7390153018       -3.2319682684       -0.0035040806
 C         -3.1299195523       -4.4219755285        0.8196408290
 C         -4.0540746917       -3.2475146480        0.7149156495
 H         -4.9585887018       -3.3483436773        0.1342122595
 H         -4.1551029213       -2.5967022282        1.5715206097
 H         -2.6134158123       -4.5748937291        1.7552944889
 H         -3.4040511129       -5.3332388782        0.3097686187
 H         -2.7567502919       -3.3243791481       -1.0836857006
 O         -2.2249416499       -0.1338529795        2.2663470404
