  62
        -98.94053418
 C          2.4825059631        1.2156570592        0.0275877229
 C          2.4415439249        0.0112784169       -0.7151218265
 C          3.7432033622       -0.6148875495       -0.9802511063
 C          4.8722275459       -0.0210294033       -0.5523720714
 C          6.2734371204       -0.5278321229       -0.7619913213
 C          6.7207815566       -1.5665345055        0.2758035410
 C          6.0776979223       -2.9467350996        0.1342248608
 H          6.1969021582       -3.2985082890       -0.8909246513
 H          6.6359060115       -3.6276782497        0.7797326402
 C          4.5948544795       -2.9990374236        0.5284211503
 H          4.3426105642       -2.1163045939        1.1205186949
 H          4.4164666040       -3.8704720774        1.1623501499
 C          3.6273558540       -3.0933195552       -0.6516241128
 H          2.6062955375       -3.0838594089       -0.2606752405
 H          3.7787649090       -4.0396326522       -1.1758162130
 C          3.7538265312       -1.9480728447       -1.6649545042
 H          4.6605461342       -2.0668194114       -2.2578135225
 H          2.8895463892       -1.9845786063       -2.3329879489
 H          7.8024432791       -1.6815834188        0.1758677509
 H          6.5191609968       -1.1713250924        1.2740348617
 H          6.3650084673       -0.9486351750       -1.7635276985
 H          6.9321669476        0.3398782047       -0.6868389284
 O          4.8687167799        1.1553094749        0.1300071958
 C          3.6798224238        1.7870549777        0.4573548331
 O          3.8191220426        2.8332609330        1.1229957021
 O          1.3776747521       -0.5164616365       -1.1341032299
 C          1.1899254565        1.9278959392        0.3812372501
 C          0.2619561564        0.9838179908        1.1068338785
 C          0.7585656982        0.2449674417        2.1780529018
 C         -0.0511408024       -0.6417767442        2.8596359645
 C         -1.3735322057       -0.8104012313        2.4883868690
 C         -1.8859067266       -0.0628517315        1.4350382033
 C         -1.0705793906        0.8339046675        0.7573611218
 H         -1.4902030280        1.3952790633       -0.0595929226
 N         -3.2427377700       -0.1790851477        1.0817621773
 S         -3.7133559212       -0.1013498260       -0.5377031469
 O         -3.0253358910       -1.1064950622       -1.3167478978
 O         -3.6014355542        1.2592266061       -0.9976643450
 C         -5.4358530507       -0.5326475661       -0.3654840104
 C         -5.8418630301       -1.8305585070       -0.6111376623
 C         -7.1788614571       -2.1576954260       -0.4473400139
 C         -8.0817525206       -1.1873671871       -0.0397349932
 C         -7.6596542445        0.1116498065        0.2019165977
 C         -6.3247798778        0.4454942930        0.0382573730
 H         -5.9524187298        1.4426875746        0.2048268199
 H         -8.3651435728        0.8640495461        0.5156133068
 H         -9.1214587098       -1.4445051123        0.0874922385
 H         -7.5103857390       -3.1656148843       -0.6384839840
 H         -5.1061151920       -2.5491582568       -0.9353489677
 H         -3.6848038301       -0.9709107831        1.5301170162
 H         -2.0035787617       -1.5128905822        3.0129033569
 H          0.3516431485       -1.2148149934        3.6815117769
 H          1.7957373827        0.3695570033        2.4604653110
 H          1.4657791398        2.7384837879        1.0723756695
 C          0.5754967722        2.5381212680       -0.8611801560
 C         -0.2661280403        3.7732757757       -0.7583709113
 C          1.1009671406        3.8462965955       -1.3676419323
 H          1.1859230133        3.9892312444       -2.4344494056
 H          1.8915636366        4.3139398840       -0.7986481648
 H         -1.1276084837        3.8617249395       -1.4034556970
 H         -0.4058190554        4.2003836007        0.2232965333
 H          0.2968919107        1.7920766096       -1.5982360481
