  62
        -98.94314607
 C         -1.8800558998       -1.1346743267        0.3267049331
 C         -2.4364834401       -0.1245636681        1.1542980035
 C         -3.8509451529        0.1924253012        0.9320962079
 C         -4.5460422612       -0.4845925882        0.0004230650
 C         -6.0032523918       -0.3021481489       -0.3268880968
 C         -6.2851514402        0.8449349156       -1.3066290094
 C         -6.1234669290        2.2501544517       -0.7256737653
 H         -6.5597334949        2.9466047137       -1.4444532618
 H         -6.7004981066        2.3300752731        0.1961292575
 C         -4.6683948821        2.6623296967       -0.4614149176
 H         -4.5007317020        3.6727559504       -0.8412605113
 H         -3.9950465204        1.9997560965       -1.0104563776
 C         -4.2661405697        2.6620752050        1.0136140018
 H         -3.2086012555        2.9317509947        1.0802822659
 H         -4.8405236249        3.4204332729        1.5505825885
 C         -4.4566905390        1.3137870603        1.7207493857
 H         -3.9442501608        1.3572992494        2.6850738515
 H         -5.5162425543        1.1273771382        1.8956501269
 H         -5.6311882532        0.7322788768       -2.1743706465
 H         -7.3161182059        0.7337929050       -1.6502365451
 H         -6.5676684720       -0.1438674036        0.5925185901
 H         -6.3375203443       -1.2356920397       -0.7844950064
 O         -3.9850946056       -1.4609395804       -0.7571670167
 C         -2.6432526241       -1.7984428010       -0.6347157918
 O         -2.2863730458       -2.6949959212       -1.4220501022
 O         -1.7824498689        0.4762575171        2.0491223674
 C         -0.4089336082       -1.4611706238        0.5309262433
 C          0.4230193821       -0.8166348584       -0.5522203676
 C          0.4886944535       -1.3388573370       -1.8404508564
 C          1.2358483732       -0.7041013089       -2.8152557968
 C          1.9453833461        0.4480372477       -2.5245838075
 C          1.8845746630        0.9801349664       -1.2427678793
 C          1.1245534365        0.3475878472       -0.2682161365
 H          1.0707870447        0.7850056843        0.7178916115
 N          2.5941025045        2.1507532414       -0.9156251700
 S          3.5868448985        2.1207374593        0.4326569534
 O          2.7983353023        2.1472298364        1.6370455732
 O          4.4990554442        3.2266750352        0.2400195791
 C          4.4610879949        0.5729675436        0.2907769673
 C          4.0352498050       -0.5235742675        1.0118940386
 C          4.6801688293       -1.7366275369        0.8282808165
 C          5.7310598393       -1.8315223093       -0.0705200491
 C          6.1503821109       -0.7192622963       -0.7845891009
 C          5.5080738969        0.4950095570       -0.6070014915
 H          5.8096206352        1.3858456460       -1.1339203489
 H          6.9712155783       -0.7960799124       -1.4792306392
 H          6.2270713129       -2.7786331878       -0.2122069706
 H          4.3575932565       -2.6027762731        1.3838451106
 H          3.2165555867       -0.4053978621        1.7034263096
 H          3.0830369267        2.5633543691       -1.6976196544
 H          2.5323621626        0.9390724089       -3.2859249339
 H          1.2717227228       -1.1153114895       -3.8126344119
 H         -0.0772354011       -2.2248785923       -2.0793074129
 H         -0.1440992010       -0.9788140777        1.4820550719
 C         -0.1406308580       -2.9470497155        0.6563700086
 C          1.1084433478       -3.4018210578        1.3469133515
 C         -0.2237397149       -3.5900788993        2.0069000740
 H         -0.6320310565       -4.5870562742        2.0774495665
 H         -0.4718366608       -2.9578441002        2.8474307261
 H          1.6211545427       -4.2708920977        0.9650945690
 H          1.7607398096       -2.6383020292        1.7425641086
 H         -0.4939879751       -3.5261744902       -0.1860495446
