  62
        -98.94023152
 C         -2.6322690609       -1.3209150993       -0.0408800229
 C         -2.5092895513       -0.1800291331       -0.8694531434
 C         -3.7475499566        0.5789729297       -1.0979494539
 C         -4.8965907574        0.1507717078       -0.5437225475
 C         -6.2169785892        0.8559488876       -0.6518633594
 C         -6.4179651319        1.8380122625        0.5107383921
 C         -5.2257473235        2.7648177200        0.7492495025
 H         -4.3713271345        2.1712504289        1.0831946573
 H         -5.4921454874        3.4330515172        1.5710670573
 C         -4.8145909793        3.5973761123       -0.4731432692
 H         -4.6352173901        4.6255465859       -0.1518540955
 H         -5.6304282917        3.6214550672       -1.1965136406
 C         -3.5372210568        3.1196273570       -1.1667162809
 H         -2.7384756963        3.0045927522       -0.4288000154
 H         -3.2212787434        3.8958122010       -1.8690500369
 C         -3.6557180595        1.8094056176       -1.9556713565
 H         -2.7418200275        1.6949973844       -2.5460596270
 H         -4.5035883448        1.8677826944       -2.6412258537
 H         -6.5922769665        1.2633982624        1.4233358698
 H         -7.3095626053        2.4344405101        0.3091526710
 H         -7.0099632111        0.1067961115       -0.6238815405
 H         -6.2635914008        1.3856664624       -1.6011994562
 O         -4.9776393593       -0.9623361458        0.2292390235
 C         -3.8499974941       -1.7146433429        0.5135030736
 O         -4.0571904563       -2.6939486697        1.2582402531
 O         -1.4246034443        0.1853058918       -1.3949111948
 C         -1.4074387387       -2.1593379652        0.2786757021
 C         -0.3601081858       -1.2943900968        0.9378968997
 C         -0.7232286124       -0.5418070014        2.0522069392
 C          0.1947119421        0.2750256042        2.6823334384
 C          1.4983296288        0.3555819411        2.2230102467
 C          1.8726447569       -0.3922977291        1.1161686545
 C          0.9450582860       -1.2131858921        0.4827777543
 H          1.2489742629       -1.7834848959       -0.3809933847
 N          3.2019852384       -0.3564853153        0.6545529711
 S          4.0201504041        1.1192938486        0.6114608812
 O          4.3655402170        1.4929390889        1.9602226721
 O          3.2680325553        2.0976095189       -0.1426492284
 C          5.4901276300        0.6392397433       -0.2738779423
 C          6.5213331100        0.0456955012        0.4290622439
 C          7.6558107496       -0.3557598106       -0.2578872070
 C          7.7392202566       -0.1592164439       -1.6284095240
 C          6.6965820381        0.4389813336       -2.3199949883
 C          5.5583677658        0.8418679620       -1.6391080260
 H          4.7274413705        1.3184821402       -2.1347088999
 H          6.7655131607        0.5929064643       -3.3849094221
 H          8.6235059900       -0.4714992187       -2.1612130528
 H          8.4697220029       -0.8190171534        0.2761161692
 H          6.4147752932       -0.0781157819        1.4939609858
 H          3.3016287715       -0.8333974605       -0.2318509299
 H          2.2201836407        0.9966090798        2.7019026406
 H         -0.1042777025        0.8581542947        3.5409536679
 H         -1.7421149568       -0.6012959829        2.4120777594
 H         -1.7360010765       -2.9108135513        1.0112127518
 C         -0.9243775359       -2.8727959281       -0.9666001684
 C         -0.1624721983       -4.1580831067       -0.8511625860
 C         -1.5736193440       -4.1657276951       -1.3552136244
 H         -1.7480089945       -4.3602489843       -2.4028127459
 H         -2.3502428408       -4.5440626434       -0.7064777771
 H          0.6318630033       -4.3535738575       -1.5557712479
 H          0.0228055062       -4.5406771993        0.1410548015
 H         -0.6614980520       -2.1871382419       -1.7641863216
