  62
        -98.93830295
 C         -1.8089352314       -0.7036651118        0.1902295626
 C         -2.3514979422        0.5944540286        0.0529000330
 C         -3.7851451411        0.7373309615        0.3690919998
 C         -4.4785872327       -0.3426903445        0.7693800997
 C         -5.9463810546       -0.4231414257        1.0865019947
 C         -6.7468746301       -0.8622598652       -0.1512650876
 C         -7.1784770680        0.2751795883       -1.0760520251
 H         -7.6145776683       -0.1792774421       -1.9686290861
 H         -7.9637364459        0.8562029022       -0.5878267858
 C         -6.0611296384        1.2291894307       -1.5066189923
 H         -5.1661676312        0.6582749522       -1.7609061006
 H         -6.3876103658        1.7384916041       -2.4155495658
 C         -5.7234985540        2.2830912638       -0.4414421482
 H         -5.7388090846        3.2752446145       -0.8974610360
 H         -6.5031100867        2.2815632076        0.3202069201
 C         -4.3491938605        2.1245392635        0.2262822386
 H         -3.5970525935        2.6688661540       -0.3537695467
 H         -4.3767762789        2.5934201675        1.2156873431
 H         -6.1367546410       -1.5781479336       -0.7079634568
 H         -7.6450996514       -1.3871115430        0.1802992170
 H         -6.0560276243       -1.1865685893        1.8595422199
 H         -6.3097505794        0.5236098217        1.4747491152
 O         -3.9120705329       -1.5747372527        0.8944975342
 C         -2.5768528034       -1.7893852705        0.6088603631
 O         -2.1947847881       -2.9660609661        0.7698941356
 O         -1.6760709982        1.5899262347       -0.3195376544
 C         -0.3463512779       -0.9516492212       -0.1311282809
 C          0.5353061008       -0.0482575008        0.6956022757
 C          0.2752486232        0.0850948705        2.0577809705
 C          1.0469277235        0.9132821655        2.8479983837
 C          2.1095439001        1.6125437470        2.3023765472
 C          2.3885430732        1.4744327180        0.9490694662
 C          1.6082866211        0.6427607529        0.1551800226
 H          1.8396299985        0.5696061347       -0.8940969550
 N          3.4615363643        2.1664103221        0.3685735132
 S          4.4051588344        1.4172338172       -0.7857235269
 O          5.6733177834        2.1122445643       -0.7219491025
 O          3.7476119456        1.4308654968       -2.0676245449
 C          4.6009663159       -0.2626546719       -0.2149476084
 C          5.0705765065       -0.4735839684        1.0667075463
 C          5.2155523259       -1.7736345983        1.5220040542
 C          4.8945604683       -2.8367243776        0.6915430280
 C          4.4338357115       -2.6087532770       -0.5954355806
 C          4.2832987792       -1.3096876724       -1.0544434988
 H          3.9220347123       -1.0883921601       -2.0454313894
 H          4.1888556713       -3.4363090721       -1.2422550998
 H          5.0054028182       -3.8484879068        1.0485131487
 H          5.5768233329       -1.9546821286        2.5214465636
 H          5.3216935802        0.3714055983        1.6866329536
 H          4.0142223732        2.7136634529        1.0114346988
 H          2.7093631188        2.2673648393        2.9158710358
 H          0.8225813409        1.0149963839        3.8990926689
 H         -0.5547655489       -0.4610349356        2.4853960598
 H         -0.1428942141       -1.9918519364        0.1635922736
 C         -0.1205426985       -0.8152943829       -1.6227286905
 C          0.9228026475       -1.6397994467       -2.3117828732
 C         -0.5298367888       -1.9414332370       -2.5221975432
 H         -0.9762172409       -1.7041142437       -3.4763016690
 H         -0.9430859114       -2.8228081465       -2.0531924036
 H          1.4768500588       -1.1905882484       -3.1228098475
 H          1.4966582729       -2.3235800009       -1.7049994717
 H         -0.2915512035        0.1945825025       -1.9790407173
