  62
        -98.94010426
 C         -1.9675832215       -1.5463128485        0.1351834548
 C         -1.7705988289       -0.5320342712       -0.8295413174
 C         -2.7731016289        0.5537026422       -0.8611212600
 C         -3.7846765263        0.5320413418        0.0263682421
 C         -4.8758179520        1.5531752680        0.1981288270
 C         -4.3935873796        2.8136492703        0.9413121891
 C         -2.9843389871        3.2805306029        0.5811864662
 H         -2.7026696056        4.0629805045        1.2905245122
 H         -2.2894962329        2.4504802421        0.7232659156
 C         -2.8275653538        3.8520371764       -0.8264856679
 H         -3.4334544847        4.7575482413       -0.9093908995
 H         -1.7818495282        4.1439738363       -0.9542344825
 C         -3.2154829926        2.9209505734       -1.9750904698
 H         -2.9106369685        3.4087747812       -2.9060412502
 H         -4.2955598137        2.8112481349       -2.0248504374
 C         -2.5413353826        1.5503696888       -1.9717089317
 H         -2.8159212381        1.0356411321       -2.9014281239
 H         -1.4554250313        1.6843175363       -2.0281625014
 H         -5.1060002419        3.6192542262        0.7576644137
 H         -4.4020054057        2.5934995037        2.0112787914
 H         -5.2980275187        1.8043636158       -0.7707373376
 H         -5.6620943828        1.0802101257        0.7902117822
 O         -3.9146918494       -0.4493259843        0.9623342512
 C         -3.0316283479       -1.5058255863        1.0388859098
 O         -3.2907833099       -2.3333427576        1.9351775347
 H          1.2057316215       -2.1992870356       -1.2765656715
 C          1.3520236950       -1.9754908174       -0.2323168598
 C          0.3340513671       -2.2138161254        0.6760228824
 C          0.5443575098       -1.8895223437        2.0137486307
 C          1.7474139990       -1.3505458938        2.4298301598
 C          2.7578370422       -1.0990743167        1.5171423626
 C          2.5477465423       -1.4008326265        0.1785097993
 N          3.5416574691       -1.0961613428       -0.7668035526
 S          4.3076655294        0.3838111456       -0.6281798987
 O          4.6631468352        0.7590447416       -1.9796194277
 O          5.4138385377        0.2642651108        0.2909797212
 C          3.1126024680        1.5307786634        0.0436187169
 C          1.8295787457        1.5661530282       -0.4656734029
 C          0.9271281757        2.4712732048        0.0687569997
 C          1.3152747324        3.3275430074        1.0866640239
 C          2.6093039059        3.2847880929        1.5812209942
 C          3.5154857651        2.3767812218        1.0580246635
 H          4.5275415858        2.2996270253        1.4213864002
 H          2.9125076555        3.9503088702        2.3733298878
 H          0.6030198756        4.0269810823        1.4953301623
 H         -0.0818322109        2.4913129562       -0.3106754024
 H          1.5237583548        0.8898435284       -1.2486943930
 H          3.2567290459       -1.2666460349       -1.7205471387
 H          3.6995178575       -0.6705146115        1.8209376162
 H          1.8991150369       -1.1140831725        3.4718975404
 H         -0.2553719846       -2.0584964736        2.7216813605
 C         -1.0170165192       -2.7284108724        0.2462154639
 H         -1.4157017683       -3.3584875866        1.0521365763
 C         -0.9897571210       -3.5364296414       -1.0345857936
 C         -0.4061626275       -4.9163487395       -1.0213956382
 C         -1.8860263839       -4.7292647813       -1.1655398713
 H         -2.3408740795       -4.9289193756       -2.1243272400
 H         -2.5182085956       -4.9741977589       -0.3245080510
 H          0.1561367199       -5.2489827389       -1.8806452186
 H         -0.0312620314       -5.2887453943       -0.0800618112
 H         -0.8448678702       -2.9323920067       -1.9218565825
 O         -0.8077155168       -0.5173960437       -1.6417596907
