  62
        -98.94205303
 C          2.1925819231        0.8446615582        0.1371311764
 C          1.6333259699        0.0582467810       -0.8953044521
 C          1.9297011090       -1.3856446216       -0.8666854494
 C          2.6075448717       -1.8947542365        0.1783136682
 C          3.0772033793       -3.3019947379        0.4843558834
 C          2.6612879109       -4.4714270337       -0.4021328556
 C          1.1943438221       -4.8786544956       -0.2614858419
 H          0.9684443103       -5.6242819660       -1.0270493693
 H          1.0603495982       -5.3524221185        0.7144157169
 C          0.1786473317       -3.7431403388       -0.3601073780
 H         -0.8163317246       -4.1669786452       -0.1927599833
 H          0.3421020194       -3.0147119255        0.4371112650
 C          0.1477912721       -3.0074667853       -1.6967205552
 H         -0.0204079525       -3.7206764559       -2.5069049496
 H         -0.7046061637       -2.3234499393       -1.6666685249
 C          1.4022901638       -2.1834866469       -2.0265561346
 H          2.1858111994       -2.8156071892       -2.4389664228
 H          1.1298381653       -1.4542512517       -2.7955399243
 H          3.2705236869       -5.3270943565       -0.0985401830
 H          2.9073705422       -4.2611306998       -1.4387545424
 H          4.1715531934       -3.2464486960        0.4991817174
 H          2.7665241051       -3.5047137468        1.5148107641
 O          3.0461367000       -1.1057071091        1.2049689108
 C          2.8520884400        0.2616246000        1.2150847389
 O          3.3053464402        0.8409989227        2.2261693386
 H          0.3193598920        1.2731048228        1.9308659363
 C         -0.2295752262        1.8852674656        1.2252675362
 C          0.4669035531        2.5774361957        0.2416094822
 C         -0.2530540163        3.3655747109       -0.6459427110
 C         -1.6357507856        3.4160230735       -0.5786839475
 C         -2.3273796806        2.6621506860        0.3526310505
 C         -1.6116232527        1.8960751271        1.2623283445
 N         -2.3234319685        1.0303482937        2.1489737034
 S         -2.2461117523       -0.5542165962        1.5543210337
 O         -3.0250783359       -1.3575545183        2.4738984960
 O         -0.8770420198       -0.9856264245        1.3697678456
 C         -3.0916288198       -0.4009900494       -0.0001144424
 C         -2.3784239023       -0.0863523403       -1.1399140882
 C         -3.0689033803        0.0824101931       -2.3305362284
 C         -4.4474011520       -0.0600174765       -2.3601065378
 C         -5.1481554389       -0.3730327577       -1.2046545479
 C         -4.4659091657       -0.5425083250       -0.0110343037
 H         -4.9633177238       -0.7869364258        0.9131722168
 H         -6.2204400441       -0.4817889017       -1.2300079261
 H         -4.9776136231        0.0753096080       -3.2896194480
 H         -2.5173431695        0.3302660017       -3.2232149725
 H         -1.3061320073        0.0291873239       -1.0914802615
 H         -1.9324742286        1.0251348797        3.0826717245
 H         -3.4046191171        2.6508871987        0.3822685583
 H         -2.1818173521        4.0253873827       -1.2818324733
 H          0.2682453575        3.9224714360       -1.4071277779
 C          1.9560131361        2.3471330504        0.1674746998
 H          2.4146507794        2.7089454261        1.0991571000
 C          2.6234360916        3.0227898330       -1.0103772083
 C          3.0246855301        4.4637172312       -0.9199609592
 C          4.0718389163        3.3918671871       -0.9106723388
 H          4.6957618341        3.2698306530       -1.7831381572
 H          4.5766515820        3.1737541899        0.0195369297
 H          2.9341534107        5.0810958354       -1.8006400534
 H          2.8228972732        4.9814407414        0.0055672854
 H          2.2684250287        2.6463592589       -1.9623285467
 O          0.9281026126        0.5403264230       -1.8202925186
