  62
        -98.93600612
 C         -1.5103471594       -1.2715746101        0.3727560900
 C         -2.0576101395       -0.3497673899        1.2996587697
 C         -3.4199129396        0.1211692599        1.0220858395
 C         -4.0634276595       -0.3396615506       -0.0659485203
 C         -5.4349177196        0.0904625691       -0.4979614204
 C         -5.3652908497        1.2805923388       -1.4647371208
 C         -4.4716946299        2.4215502391       -0.9776076112
 H         -3.4341887298        2.0790104992       -0.9506011711
 H         -4.5248434099        3.2179491288       -1.7232912815
 C         -4.8538730699        2.9847456895        0.3984061986
 H         -4.8267992600        4.0753840595        0.3493985482
 H         -5.8761414599        2.6962672995        0.6461343987
 C         -3.9204122699        2.5684501800        1.5369946187
 H         -4.1463661699        3.1919387402        2.4064566885
 H         -2.8832952899        2.7694017900        1.2535293387
 C         -4.0250089097        1.1045289101        1.9838361692
 H         -5.0689523597        0.8555947301        2.1855831193
 H         -3.4601597497        1.0010080705        2.9149530493
 H         -6.3780684998        1.6541583087       -1.6263900310
 H         -4.9756029297        0.9270743585       -2.4220548107
 H         -5.9146574995       -0.7490502811       -1.0038704502
 H         -6.0200902696        0.3559491994        0.3803047095
 O         -3.5112181294       -1.2270260908       -0.9291190600
 C         -2.2192759594       -1.7085532006       -0.7469792599
 O         -1.8483378593       -2.4968384408       -1.6330723796
 O         -1.4333123896        0.0565522805        2.3179681696
 C         -0.0869319694       -1.7543967199        0.6217496101
 C          0.7572847106       -1.4409663902       -0.5877134500
 C          1.1294303407       -2.3189691005       -1.5985675397
 C          1.8910018106       -1.8783022808       -2.6680043298
 C          2.3157691305       -0.5658896807       -2.7542940003
 C          1.9329364804        0.3295411595       -1.7628025505
 C          1.1554176604       -0.1117034302       -0.7048492104
 H          0.8357807704        0.6053123600        0.0371443094
 N          2.3376032702        1.6734129296       -1.8008930410
 S          2.7573446001        2.4224207201       -0.3644361812
 O          1.5755069701        2.8568779502        0.3369424786
 O          3.6742137200        3.4707635901       -0.7598578916
 C          3.6224680203        1.1687633905        0.5653663292
 C          3.0875379804        0.6734878608        1.7367048993
 C          3.7558942305       -0.3434929389        2.4003674897
 C          4.9408199205       -0.8439944989        1.8843224798
 C          5.4721849305       -0.3272877992        0.7123351997
 C          4.8073407403        0.6869459705        0.0435278393
 H          5.1934000403        1.1177241602       -0.8659934908
 H          6.3969564505       -0.7149972593        0.3167052798
 H          5.4526859406       -1.6406950687        2.4004241301
 H          3.3410842405       -0.7444578686        3.3113551998
 H          2.1597658703        1.0821152309        2.1063900092
 H          2.9801496702        1.9007655994       -2.5454364311
 H          2.9196370304       -0.2319130409       -3.5839703204
 H          2.1628571007       -2.5763571810       -3.4452170696
 H          0.8025891108       -3.3423376405       -1.5855846793
 H          0.2755787806       -1.0904294596        1.4233854699
 C         -0.0847031792       -3.1460318497        1.2379747806
 C         -0.3781617191       -4.4252167000        0.5164300410
 C          1.0013797109       -4.1598228296        1.0424528109
 H          1.3290614410       -4.7210112393        1.9048744811
 H          1.7889378709       -3.9313165298        0.3429228509
 H         -0.9874709290       -5.1554723199        1.0304370413
 H         -0.5759011891       -4.3818215803       -0.5417922990
 H         -0.4985443192       -3.0852375094        2.2421960706
