  62
        -98.94037785
 C          2.0638309366        1.2352721025       -0.0039927945
 C          2.3593613871        0.0661727348       -0.7496194401
 C          3.7748704179       -0.3338615823       -0.7719289615
 C          4.6979208579        0.4059464632       -0.1336380118
 C          6.1786041837        0.1418747049       -0.0965180294
 C          6.6056062731       -0.8641999803        0.9809825045
 C          6.2331236623       -2.3197561736        0.6959601710
 H          6.5840492768       -2.5956160576       -0.2989790407
 H          6.7763788998       -2.9360805612        1.4150582816
 C          4.7335868611       -2.6255591936        0.8181077697
 H          4.2418972524       -1.8250271758        1.3758063868
 H          4.5944057508       -3.5449565558        1.3913208080
 C          4.0130271266       -2.8121699016       -0.5173121270
 H          4.4049745207       -3.6967262608       -1.0244964217
 H          2.9524663407       -2.9829394628       -0.3137281465
 C          4.1254837832       -1.6137226301       -1.4686323609
 H          5.1299647620       -1.5584100390       -1.8879124772
 H          3.4119016767       -1.7565304083       -2.2839316026
 H          6.1727420018       -0.5579301824        1.9361375902
 H          7.6923232288       -0.8012434644        1.0733874456
 H          6.5138144212       -0.2057812647       -1.0741336234
 H          6.6599641915        1.0989343338        0.1163280761
 O          4.3759483989        1.5288166643        0.5618337882
 C          3.0597059454        1.9453657010        0.6741294549
 O          2.9059628704        2.9525449925        1.3935242788
 H         -1.1795202404        0.4091443086       -1.3859435027
 C         -1.1496749765        0.0462047661       -0.3705153115
 C         -0.2735746887        0.6191353558        0.5377670016
 C         -0.2302826563        0.1116960905        1.8325006395
 C         -1.0382482765       -0.9463554773        2.2058264306
 C         -1.9021449629       -1.5245961567        1.2928100616
 C         -1.9485107828       -1.0284724019       -0.0030853093
 N         -2.8169150983       -1.6204923143       -0.9403210944
 S         -4.4385871131       -1.7151184903       -0.5434097340
 O         -4.6308129361       -2.7277508561        0.4637014836
 O         -5.1308764728       -1.9194083007       -1.7956019289
 C         -4.8221507677       -0.1072092144        0.1253427180
 C         -4.8225651588        0.0842184445        1.4920674415
 C         -5.0407623869        1.3595763380        1.9885996991
 C         -5.2514524654        2.4150720590        1.1151034638
 C         -5.2522206310        2.2055294186       -0.2557170079
 C         -5.0297273397        0.9338641980       -0.7579447056
 H         -5.0289860726        0.7281496011       -1.8164218273
 H         -5.4203834667        3.0280414377       -0.9323940050
 H         -5.4182192437        3.4070459698        1.5045229695
 H         -5.0423419391        1.5256631819        3.0538251137
 H         -4.6605436024       -0.7629369605        2.1375936411
 H         -2.6980879800       -1.2629357403       -1.8768720791
 H         -2.5330046051       -2.3570220337        1.5602721132
 H         -0.9907276594       -1.3297127168        3.2139567107
 H          0.4550757577        0.5535682958        2.5432010102
 C          0.6449033289        1.7554033903        0.1649366447
 H          0.6986861665        2.4417392021        1.0250410604
 C          0.1284679856        2.5757586562       -1.0080259099
 C          1.0434610299        3.5054989559       -1.7462815886
 C          0.4964744825        2.2912535938       -2.4319202514
 H         -0.2591139356        2.4318385532       -3.1916176749
 H          1.1614813912        1.4652175327       -2.6277412640
 H          2.0856875702        3.5067034019       -1.4613544844
 H          0.6691755646        4.4757494338       -2.0358301856
 H         -0.8810743417        2.9341777067       -0.8298047224
 O          1.5088630436       -0.6150051449       -1.3769243586
