  62
        -98.93585762
 C         -2.7279583463       -1.1232097149       -0.3186281971
 C         -2.4615904393        0.0299569423       -1.0970214769
 C         -3.3220464651        1.1952024024       -0.8339304498
 C         -4.2873282035        1.1139122270        0.0985174520
 C         -5.1875881148        2.2428971644        0.5068169839
 C         -4.5889077793        3.0346384978        1.6779711456
 C         -3.1292986022        3.4383562612        1.4690883099
 H         -2.8245004042        4.0177413781        2.3432595834
 H         -2.5099175457        2.5383958536        1.4496599031
 C         -2.8735104306        4.2585284375        0.1968657781
 H         -3.8116037772        4.6784037645       -0.1677750230
 H         -2.2185903273        5.0959031612        0.4463783141
 C         -2.1932320289        3.4819368176       -0.9319958353
 H         -1.3017753914        2.9819355381       -0.5449209111
 H         -1.8644148225        4.1995444208       -1.6882809255
 C         -3.0632202290        2.4365277271       -1.6415250557
 H         -4.0033694088        2.8929493168       -1.9572288379
 H         -2.5243622879        2.1063583699       -2.5344944873
 H         -4.6477923655        2.4184792941        2.5781950236
 H         -5.1964365561        3.9273927511        1.8369976563
 H         -6.1461058185        1.8228826627        0.8161291442
 H         -5.3481663624        2.9000024144       -0.3456702435
 O         -4.5211583020       -0.0119707176        0.8197362496
 C         -3.7497832987       -1.1452625509        0.6362496704
 O         -4.0708934514       -2.1040259568        1.3664898357
 O         -1.5555995457        0.1087744900       -1.9678303296
 C         -1.9418874080       -2.4183834910       -0.4541074013
 C         -0.6756205068       -2.3669631024        0.3620127649
 C         -0.3862530979       -3.3481996936        1.3019177886
 C          0.7838740174       -3.2911624609        2.0398880617
 C          1.6845791433       -2.2569942441        1.8593749371
 C          1.4034470214       -1.2700751779        0.9227808208
 C          0.2327971006       -1.3327465566        0.1807257729
 H          0.0207651768       -0.5721090366       -0.5566639403
 N          2.2978771685       -0.1939018599        0.7373715627
 S          3.9085120618       -0.6032418916        0.4249368618
 O          3.9800843719       -1.5301916772       -0.6837337806
 O          4.5125662903       -1.0485010202        1.6552604514
 C          4.5728546046        0.9822026356       -0.0387609619
 C          4.9458600684        1.8613871713        0.9598740557
 C          5.4322986923        3.1094069443        0.6048965910
 C          5.5350732691        3.4555609005       -0.7343928928
 C          5.1572972548        2.5617484531       -1.7251247147
 C          4.6688172803        1.3121060076       -1.3770278843
 H          4.3703742451        0.5835513351       -2.1140806851
 H          5.2401242909        2.8325585930       -2.7654398781
 H          5.9142903842        4.4273852444       -1.0084671386
 H          5.7289668009        3.8067543831        1.3716536951
 H          4.8553214745        1.5455894467        1.9859902208
 H          1.9652433098        0.4252149332        0.0085477826
 H          2.6028308096       -2.2074448807        2.4215092317
 H          0.9976009028       -4.0608229245        2.7663121610
 H         -1.0891073443       -4.1536259217        1.4590444901
 H         -2.5892320454       -3.1912365872       -0.0113325669
 C         -1.7007449329       -2.8092753487       -1.9077354863
 C         -0.3469147123       -2.8925223741       -2.5412104876
 C         -1.1031632472       -4.1469210014       -2.2303659481
 H         -1.5203805323       -4.7206242061       -3.0439880733
 H         -0.7530603011       -4.7445344828       -1.4017426253
 H         -0.2593874612       -2.5795039303       -3.5706895673
 H          0.5225898959       -2.6618192427       -1.9448346697
 H         -2.5058459193       -2.4731542445       -2.5532781721
