  62
        -98.93899470
 C         -2.1133844909       -0.7287752977        0.5645999187
 C         -2.0203864670        0.0049523237       -0.6402466428
 C         -1.9384364375        1.4701579430       -0.5145745119
 C         -1.9249215570        2.0286926290        0.7095796882
 C         -1.7653931205        3.4706662376        1.1461983805
 C         -1.9291711265        4.6126649060        0.1466837227
 C         -3.3472266590        4.7903506688       -0.3939529872
 H         -3.9884635933        5.1363842888        0.4203887912
 H         -3.3252900674        5.5714985795       -1.1567771151
 C         -3.9865783344        3.5364460720       -0.9846641843
 H         -4.1121825365        2.7853384569       -0.2022414832
 H         -4.9856610032        3.8052675531       -1.3380074483
 C         -3.2323771938        2.9091320274       -2.1555450707
 H         -3.0530993518        3.6633192174       -2.9240570324
 H         -3.8768994652        2.1383916673       -2.5860588500
 C         -1.8913162864        2.2418131973       -1.8013409545
 H         -1.6554785682        1.5122434361       -2.5817053507
 H         -1.0763765670        2.9619854433       -1.7799448226
 H         -1.2205870263        4.4996500673       -0.6684945471
 H         -1.6595639149        5.5300120285        0.6772661348
 H         -0.7613392177        3.5313609097        1.5823528505
 H         -2.4701554982        3.6122408835        1.9721341605
 O         -2.0135617394        1.2763851173        1.8476864395
 C         -2.0927557122       -0.1034302794        1.8076103907
 O         -2.1479358737       -0.6502186988        2.9299766567
 O         -1.9998550028       -0.5383558780       -1.7764229521
 C         -2.1055708637       -2.2466734540        0.5275481019
 C         -0.8367873416       -2.7018219581       -0.1545361673
 C         -0.7901920338       -3.7055354348       -1.1127300905
 C          0.4069262648       -4.0238519797       -1.7317258130
 C          1.5702733832       -3.3432590894       -1.4239795963
 C          1.5371203584       -2.3522147948       -0.4486041344
 C          0.3458690953       -2.0608711035        0.1923672904
 H          0.3329232236       -1.2896299661        0.9501264035
 N          2.6982533131       -1.6454199885       -0.0879744334
 S          2.5267538382       -0.0280978698        0.3715056453
 O          2.1870812606        0.0218773896        1.7731239786
 O          1.6394631091        0.6675377892       -0.5322989791
 C          4.2033301607        0.5399603573        0.1493546267
 C          5.1355078651        0.2541446632        1.1291072215
 C          6.4463649119        0.6651356730        0.9469036419
 C          6.8016352287        1.3507279425       -0.2054510330
 C          5.8549283730        1.6321358035       -1.1788782106
 C          4.5422311473        1.2224848807       -1.0035455176
 H          3.7694906584        1.4241546951       -1.7281400126
 H          6.1327114287        2.1682775803       -2.0719524967
 H          7.8222191034        1.6704263214       -0.3442940920
 H          7.1840949165        0.4505566364        1.7030619102
 H          4.8089001008       -0.2719721991        2.0109622062
 H          3.4512281578       -1.7635018039       -0.7524866497
 H          2.4950791619       -3.5727911590       -1.9309442082
 H          0.4290122130       -4.8002515613       -2.4814099560
 H         -1.6928362500       -4.2267481536       -1.3868447116
 H         -2.0725390187       -2.5773352078        1.5766547919
 C         -3.3671939359       -2.7798128466       -0.1176127033
 C         -3.9148870802       -4.1157170759        0.2834739827
 C         -4.6184737526       -2.8609317259        0.7023758732
 H         -5.5588509460       -2.6126738584        0.2338501363
 H         -4.5514411868       -2.5542974612        1.7364137516
 H         -4.3777512583       -4.7314615822       -0.4728159069
 H         -3.3778999578       -4.6696222835        1.0386387772
 H         -3.4645812741       -2.4717224284       -1.1521310083
