  62
        -98.94667871
 C          1.1760315792        1.2738712936        0.0790805732
 C          1.5697454440        0.2943500092        1.0239381396
 C          2.4137413520       -0.7927016278        0.5153728869
 C          2.7067270983       -0.8347665929       -0.7972293734
 C          3.6304573135       -1.8297192989       -1.4373862645
 C          5.0746320961       -1.3080724153       -1.4543745142
 C          5.5599816795       -0.7871202242       -0.1014993248
 H          6.6002122739       -0.4787149507       -0.2264784163
 H          4.9903406466        0.1067324700        0.1627317888
 C          5.4628648508       -1.8054140925        1.0432781638
 H          5.3631795728       -2.8124737283        0.6368701881
 H          6.3926189817       -1.7785305409        1.6154936007
 C          4.3247619574       -1.5418451969        2.0311643286
 H          4.3729926994       -0.5059080047        2.3762970820
 H          4.4759319335       -2.1838657791        2.9030785012
 C          2.9091575749       -1.8097701443        1.5040009114
 H          2.2230678027       -1.7604950663        2.3543715548
 H          2.8594141271       -2.8145393546        1.0806719082
 H          5.1408253085       -0.4928938107       -2.1785713165
 H          5.7287091928       -2.1145290025       -1.7909798940
 H          3.5856174314       -2.7698651479       -0.8908538266
 H          3.3048786748       -1.9952906299       -2.4657725546
 O          2.2240819977        0.0632030650       -1.6904260646
 C          1.4455522477        1.1373812803       -1.2831834539
 O          1.0696633646        1.8713732353       -2.2151514099
 O          1.2368297318        0.3349870771        2.2398200463
 C          0.3649590654        2.4609511473        0.5755059361
 C         -1.0752581818        2.2462866171        0.1843392722
 C         -1.7071906815        2.9297068190       -0.8455120204
 C         -3.0164585013        2.6295491390       -1.1842231719
 C         -3.7208611413        1.6519197216       -0.5047384212
 C         -3.0947307119        0.9634989865        0.5266030278
 C         -1.7848209561        1.2620131555        0.8635610748
 H         -1.2926949615        0.7177971808        1.6596270328
 N         -3.8014471879       -0.0535076950        1.2118852329
 S         -4.0798965297       -1.4427013268        0.3201933725
 O         -4.9003150513       -1.1064443622       -0.8142084395
 O         -4.6287861118       -2.4042883099        1.2482063689
 C         -2.4673990551       -1.9768575271       -0.2257032468
 C         -1.8070702943       -2.9508251165        0.4960601318
 C         -0.5418413540       -3.3427241915        0.0914284134
 C          0.0422319303       -2.7479852085       -1.0159712535
 C         -0.6258618911       -1.7578300600       -1.7193335452
 C         -1.8940084971       -1.3654190425       -1.3228449743
 H         -2.4425201719       -0.6040116736       -1.8537792895
 H         -0.1611734145       -1.2816358733       -2.5689152892
 H          1.0238793222       -3.0569083613       -1.3368207844
 H         -0.0150307115       -4.1075991378        0.6388113501
 H         -2.3017487005       -3.3918595093        1.3466495684
 H         -3.3600177956       -0.3140297361        2.0836530925
 H         -4.7337894879        1.3955240321       -0.7690271205
 H         -3.4949008337        3.1654910042       -1.9900015633
 H         -1.1691286753        3.6845404254       -1.3944493204
 H          0.4218038250        2.4098162285        1.6719543169
 C          0.9394936180        3.7845645220        0.1212994553
 C          0.5205370235        5.0420779484        0.8205332149
 C          1.9064566583        4.5050972951        1.0104676812
 H          2.7314614532        5.0314157839        0.5542559383
 H          2.1520227882        4.0487973995        1.9585092608
 H          0.3926324468        5.9400135479        0.2357445369
 H         -0.1765785515        4.9480156269        1.6394952242
 H          1.1197521847        3.8319488101       -0.9452178375
