  62
        -98.93936691
 C         -2.4230777017       -0.9751719960       -0.6372159215
 C         -3.6800655145       -1.0010849249        0.0212750904
 C         -4.5916505004        0.1118626066       -0.2697150460
 C         -4.2021014611        1.0706072577       -1.1294025628
 C         -5.0023362189        2.2927224361       -1.4727260039
 C         -4.6600761245        3.4606924874       -0.5371076868
 C         -4.6801975339        3.0908997218        0.9461410156
 H         -3.8749346827        2.3805024680        1.1483079834
 H         -4.4551067136        3.9984006309        1.5106712505
 C         -6.0105008829        2.5013989082        1.4355059166
 H         -6.8045829189        2.7396802476        0.7269255689
 H         -6.2725368151        2.9709873584        2.3859516600
 C         -5.9843677562        0.9910670009        1.6778756966
 H         -5.1317484681        0.7366192188        2.3128193048
 H         -6.8915134210        0.7185623559        2.2238689762
 C         -5.9266384935        0.1147740024        0.4202005500
 H         -6.1077002396       -0.9193701361        0.7274083967
 H         -6.7176038914        0.4111965261       -0.2716653876
 H         -5.3690947416        4.2697642748       -0.7216313053
 H         -3.6593570443        3.8216710485       -0.7853582366
 H         -4.7683580608        2.5803017904       -2.4990568261
 H         -6.0625275930        2.0571004066       -1.4042180508
 O         -2.9986713948        1.0555274507       -1.7533871283
 C         -2.0733263148        0.0482772400       -1.5181674546
 O         -1.0129744792        0.1885990722       -2.1579671736
 H          0.8339117800       -0.7415616534       -0.9431899902
 C          0.7346401832       -0.9074376151        0.1184949854
 C         -0.3754061705       -1.5846235172        0.6019635477
 C         -0.5033621362       -1.7572551469        1.9764653911
 C          0.4562188605       -1.2636339070        2.8418252212
 C          1.5570049555       -0.5801155193        2.3571089790
 C          1.6891745983       -0.3935709707        0.9871113192
 N          2.7791482893        0.3400361183        0.4814331702
 S          4.3123359962       -0.0133874529        1.0913364710
 O          4.5455176500       -1.4407381684        1.0658820063
 O          4.4481717124        0.6194552273        2.3797067223
 C          5.3498334090        0.8114842659       -0.0981139966
 C          5.9536992565        0.0767141116       -1.1002766610
 C          6.7414981712        0.7349668869       -2.0316080037
 C          6.9073890326        2.1090730167       -1.9471190830
 C          6.2933650650        2.8330789688       -0.9357023536
 C          5.5056986507        2.1811435690       -0.0005671269
 H          5.0160527693        2.7006190665        0.8065178593
 H          6.4262662924        3.9010854378       -0.8730920533
 H          7.5211150694        2.6188060004       -2.6729554527
 H          7.2218687465        0.1749187061       -2.8177114018
 H          5.8026955743       -0.9907032141       -1.1225163707
 H          2.7849324406        0.3478910562       -0.5297192791
 H          2.3133851631       -0.1914481564        3.0196888909
 H          0.3466459401       -1.4101273581        3.9060690829
 H         -1.3706848922       -2.2748573519        2.3614862724
 C         -1.4513413378       -2.1015478081       -0.3231271702
 H         -2.0422777280       -2.8405980856        0.2343997985
 C         -0.8952894554       -2.7696530427       -1.5638120258
 C         -0.2249229930       -4.1031575816       -1.4302393481
 C         -1.5645487065       -4.0006875765       -2.0939242296
 H         -1.6227539332       -4.1343666657       -3.1637137448
 H         -2.4282297397       -4.3700983363       -1.5606356921
 H         -0.1784334201       -4.5401370328       -0.4440229527
 H          0.6394411255       -4.3102240764       -2.0423949693
 H         -0.4971971656       -2.0748170827       -2.2916753022
 O         -4.0245511478       -1.9181764404        0.8138348309
