  62
        -98.93935435
 C         -2.6300672429       -0.9207864619        0.4450360059
 C         -2.6566898255        0.2498949112        1.2427792155
 C         -3.5497834303        1.3198230734        0.7877142015
 C         -4.2704288648        1.1525062228       -0.3363267046
 C         -5.2534640284        2.1351695986       -0.9127577607
 C         -4.6137292014        3.2222399780       -1.7870108412
 C         -3.8231367303        4.2864581376       -1.0251418834
 H         -3.6156448474        5.0955829925       -1.7281580064
 H         -4.4445007420        4.6981069036       -0.2291964866
 C         -2.4943955362        3.7885500799       -0.4393501921
 H         -2.2117365378        2.8501988869       -0.9227627602
 H         -1.7057285505        4.5112678657       -0.6603523270
 C         -2.5078723393        3.5814293431        1.0752610455
 H         -1.5304634946        3.1963231203        1.3767489928
 H         -2.6607421816        4.5406327744        1.5747543907
 C         -3.5773500310        2.5985289877        1.5698257495
 H         -4.5642933590        3.0570670823        1.5132693563
 H         -3.3632695169        2.3548585503        2.6133237961
 H         -3.9641096882        2.7416346285       -2.5222634371
 H         -5.4204967203        3.7189858844       -2.3308700115
 H         -5.8199172726        2.6017133511       -0.1062395866
 H         -5.9421166462        1.5567640292       -1.5323605848
 O         -4.1980070152        0.0239373963       -1.0892131677
 C         -3.3636508148       -1.0285820779       -0.7370792497
 O         -3.3809446807       -1.9774531669       -1.5427548374
 O         -1.9691700346        0.3909177825        2.2904122285
 C         -1.7235950196       -2.0611838046        0.8788604910
 C         -0.5324543556       -2.1124532770       -0.0468932661
 C         -0.3690931104       -3.0760488076       -1.0326695759
 C          0.7356170191       -3.0399719823       -1.8667154057
 C          1.6958402271       -2.0543095499       -1.7338570520
 C          1.5452801753       -1.0887679858       -0.7458730078
 C          0.4383232025       -1.1264705544        0.0888825621
 H          0.3130997211       -0.3735716299        0.8570120505
 N          2.5148773065       -0.0770905468       -0.6077892794
 S          4.1310159192       -0.5727887738       -0.6724942983
 O          4.5283534850       -0.6450260163       -2.0564512786
 O          4.3073169027       -1.7831844173        0.0980829511
 C          4.9556789903        0.7929291614        0.1207499513
 C          5.2966222524        1.8997174621       -0.6331623403
 C          5.9226767667        2.9670636733       -0.0091436813
 C          6.1947751527        2.9107685531        1.3497553854
 C          5.8473872680        1.7925683958        2.0929078843
 C          5.2201727803        0.7219943529        1.4754417495
 H          4.9422047742       -0.1712696054        2.0117742828
 H          6.0629461669        1.7501167835        3.1484297604
 H          6.6840322834        3.7419025320        1.8326263278
 H          6.1973167471        3.8369962427       -0.5835605755
 H          5.0746059285        1.8945858652       -1.6875198712
 H          2.3431490005        0.5022369062        0.2028744653
 H          2.5634640101       -2.0233438572       -2.3734023797
 H          0.8508132029       -3.7924543895       -2.6325680947
 H         -1.1124588515       -3.8456961159       -1.1575166704
 H         -1.3591238427       -1.7737120026        1.8752927611
 C         -2.4682021159       -3.3728834470        0.9971479282
 C         -1.8508213935       -4.4975284567        1.7716532635
 C         -3.0395675546       -3.7712764564        2.3235773398
 H         -3.9922002616       -4.2790153910        2.3413449978
 H         -2.8877237092       -3.0997798031        3.1560199483
 H         -1.9848517253       -5.5063683816        1.4125720763
 H         -0.8885705414       -4.3180376247        2.2272472048
 H         -3.0463542427       -3.6190934866        0.1152291015
