  62
        -98.94522937
 C         -1.6060902268       -0.2190544617       -0.6084482605
 C         -2.8786644491       -0.7309516329       -0.9642435994
 C         -3.9315698494       -0.6137114472        0.0523323740
 C         -3.6301429474       -0.0805151415        1.2503152122
 C         -4.6132949287        0.1377469155        2.3630216073
 C         -5.2501988359        1.5318862237        2.2765028313
 C         -5.7867819923        1.8809713475        0.8882475009
 H         -4.9490154101        1.9565756910        0.1914509209
 H         -6.2401587730        2.8722833841        0.9550856130
 C         -6.8155304441        0.8843828048        0.3361578409
 H         -7.6480578603        1.4438236910       -0.0955781568
 H         -7.2190768416        0.2796789164        1.1491176192
 C         -6.2803106499       -0.0358917502       -0.7624577213
 H         -5.7921048287        0.5625080082       -1.5356623385
 H         -7.1312916916       -0.5404496529       -1.2276548132
 C         -5.3000947705       -1.1229314942       -0.3037998667
 H         -5.1541787147       -1.8130307224       -1.1399772906
 H         -5.7325198229       -1.6808606829        0.5293621109
 H         -4.4958962239        2.2736764467        2.5490506334
 H         -6.0598174734        1.5868597651        3.0065266858
 H         -5.3840705126       -0.6291603057        2.3155328755
 H         -4.0825196742        0.0479027655        3.3124911993
 O         -2.3902955367        0.3688574881        1.5693191659
 C         -1.3481463842        0.3197865763        0.6526384108
 O         -0.2768494148        0.7886518337        1.0797292638
 H          2.0949646663       -0.0598302959       -0.6853697863
 C          1.7559474002       -1.0798299730       -0.6920248710
 C          0.4857264012       -1.3845823822       -1.1522067053
 C          0.0774871186       -2.7167595831       -1.1551255224
 C          0.9228351168       -3.7133497059       -0.7088352433
 C          2.1862463642       -3.4013402564       -0.2347377021
 C          2.6004125908       -2.0762480021       -0.2203468187
 N          3.8814342939       -1.7177272059        0.2376587999
 S          3.9934701519       -0.5320542955        1.4277398328
 O          5.3156618543       -0.7244035650        1.9896724233
 O          2.8955176058       -0.6199199776        2.3612768890
 C          3.9742091609        1.0070988523        0.5355778594
 C          5.0390055099        1.2757902512       -0.3023988420
 C          5.0468655592        2.4640471455       -1.0145198890
 C          3.9969306303        3.3593523063       -0.8732484687
 C          2.9385701337        3.0752276747       -0.0237945400
 C          2.9214502024        1.8871763097        0.6914456563
 H          2.0975204805        1.6177720392        1.3349551638
 H          2.1179153401        3.7672423617        0.0828798972
 H          4.0003834862        4.2838477674       -1.4292618870
 H          5.8669059676        2.6881734100       -1.6774644485
 H          5.8359685306        0.5547983915       -0.3760541977
 H          4.4626066901       -2.5067063294        0.4857324098
 H          2.8450182030       -4.1782779314        0.1238643815
 H          0.5956415023       -4.7423047857       -0.7216645402
 H         -0.9145774226       -2.9569491950       -1.5119532956
 C         -0.4808372131       -0.3263087528       -1.6252969334
 H         -0.9578021954       -0.6947697260       -2.5447021931
 C          0.1653787642        1.0126721160       -1.9075236061
 C          1.0404896400        1.1726877434       -3.1137055680
 C         -0.3055768991        1.8296747748       -3.0713974149
 H         -0.3542753274        2.9023415985       -2.9602570772
 H         -1.0945078232        1.4187865510       -3.6844132070
 H          1.1647605404        0.3134469031       -3.7551000394
 H          1.9203685383        1.7924350014       -3.0302530406
 H          0.4437514848        1.5475550756       -1.0080283543
 O         -3.1217239847       -1.2618457771       -2.0813215052
