  62
        -98.94850152
 C          2.3476045842        0.6527002171        0.1728863510
 C          1.5444862233        0.0352114037       -0.8154588160
 C          1.7107053782       -1.4172831047       -0.9693686817
 C          2.5740332088       -2.0717741052       -0.1733446185
 C          2.8438002029       -3.5475077682       -0.2222624316
 C          1.9419795973       -4.3251876027        0.7447185957
 C          0.4576536145       -3.9779281114        0.6273103923
 H         -0.0836271807       -4.6314962048        1.3159199226
 H          0.2922562459       -2.9541398371        0.9722883063
 C         -0.1233304353       -4.1315153352       -0.7851921343
 H          0.5239741566       -4.7701745794       -1.3882675555
 H         -1.0927364121       -4.6286760558       -0.7085082730
 C         -0.3601189087       -2.8048987931       -1.5094057525
 H         -0.8857716808       -2.1239264707       -0.8353682859
 H         -1.0128441984       -2.9930944444       -2.3663478640
 C          0.8958903869       -2.0966154027       -2.0339685307
 H          1.5095628933       -2.8037037518       -2.5968699992
 H          0.5715560628       -1.3042593577       -2.7148543144
 H          2.0825169730       -5.3925279373        0.5609848684
 H          2.2621302633       -4.1113239137        1.7672443728
 H          2.6922331983       -3.9026448964       -1.2399753911
 H          3.8859505889       -3.7121952702        0.0586465836
 O          3.2979916318       -1.4539679073        0.7957610267
 C          3.1811807215       -0.0907646275        1.0105940166
 O          3.8666697596        0.3383195600        1.9617318275
 H          0.3094245388        1.0285762035        1.8435364095
 C         -0.0623219391        1.8539240247        1.2527852071
 C          0.8139949289        2.5740300829        0.4494447886
 C          0.3099767849        3.6311128650       -0.2970633472
 C         -1.0390193930        3.9402892673       -0.2529671659
 C         -1.9147923588        3.1885903823        0.5082575247
 C         -1.4188964960        2.1282218741        1.2582631575
 N         -2.2692301568        1.2994364922        2.0218403200
 S         -2.3874681405       -0.3013898306        1.5340131522
 O         -3.2993270680       -0.9165869000        2.4753264680
 O         -1.0744196142       -0.8841933759        1.4457724971
 C         -3.1712642241       -0.2199267365       -0.0675792013
 C         -2.4457329314        0.2083399772       -1.1616066180
 C         -3.0947650875        0.3279572094       -2.3817730564
 C         -4.4427537473        0.0240008293       -2.4877396507
 C         -5.1558042621       -0.4042972946       -1.3778601800
 C         -4.5168985797       -0.5230742598       -0.1547359730
 H         -5.0275507986       -0.8529888610        0.7356318306
 H         -6.2038858971       -0.6431158992       -1.4608753557
 H         -4.9392365199        0.1207261619       -3.4404811687
 H         -2.5330262844        0.6613826892       -3.2395262633
 H         -1.3943420584        0.4344197668       -1.0671958579
 H         -3.2011058119        1.6740077351        2.1402538397
 H         -2.9715743944        3.4101003126        0.5179936007
 H         -1.4165240607        4.7641841228       -0.8391503951
 H          0.9674128493        4.2007737384       -0.9328949152
 C          2.2612901333        2.1454097835        0.4474690755
 H          2.6483168730        2.2678878309        1.4732982003
 C          3.1437011848        2.9950476020       -0.4559076660
 C          4.3659366744        2.4214774489       -1.1071425884
 C          3.1806618458        2.7997775459       -1.9408048302
 H          3.2580029094        3.6730251776       -2.5718083710
 H          2.5695214615        2.0128050293       -2.3527805221
 H          4.5718713357        1.3721187150       -0.9515812390
 H          5.2525915760        3.0355423220       -1.1589454447
 H          3.2327137766        4.0145877273       -0.0936780505
 O          0.7369690905        0.6595697081       -1.5522345436
