  62
        -98.93868475
 C          1.0251349786        1.5650877425        0.6454891432
 C          2.0793240924        1.5190725926       -0.2993197511
 C          3.1360879474        0.5246369831       -0.0425602217
 C          3.0421926264       -0.2754723417        1.0338204650
 C          3.9857244722       -1.3942510489        1.3739171475
 C          3.7165217227       -2.6076327868        0.4606881187
 C          4.8741899919       -2.9598358157       -0.4724369190
 H          5.6688788856       -3.4346541850        0.1067876094
 H          4.5048014614       -3.6953507655       -1.1900275210
 C          5.4868274266       -1.7825225333       -1.2370650268
 H          6.1783310881       -1.2426156352       -0.5883420939
 H          6.0862958299       -2.2047013295       -2.0463959932
 C          4.4904796804       -0.7797372869       -1.8336278922
 H          4.8690804367       -0.4672415789       -2.8089652671
 H          3.5226154125       -1.2506618859       -2.0055440436
 C          4.2945734634        0.5016139327       -1.0018512503
 H          4.1039492777        1.3332305646       -1.6866019261
 H          5.2171819492        0.7283118350       -0.4599402806
 H          3.4924880270       -3.4821441481        1.0736179019
 H          2.8259594109       -2.3955225643       -0.1335573919
 H          3.8185578337       -1.6565374850        2.4189694366
 H          5.0126926978       -1.0526885983        1.2632382424
 O          2.0101557788       -0.2061488874        1.9153271058
 C          0.9892102288        0.7136678661        1.7516249916
 O          0.1213696679        0.6759619169        2.6479724257
 O          2.1565309728        2.2672989729       -1.3077039372
 C         -0.1451847689        2.5274870716        0.5049974742
 C         -1.0651343529        2.0231513146       -0.5814966928
 C         -0.8841695197        2.3411444439       -1.9227512031
 C         -1.7363524072        1.8249466719       -2.8823625711
 C         -2.7761938951        0.9840979289       -2.5288843427
 C         -2.9663021933        0.6595957980       -1.1899467695
 C         -2.1128505154        1.1815875367       -0.2286843398
 H         -2.2721761637        0.9324117721        0.8097316710
 N         -4.0317102288       -0.1679859415       -0.8074599785
 S         -3.9067867046       -1.2378910270        0.4672475016
 O         -5.0250558775       -2.1365690073        0.2746971063
 O         -3.8789732851       -0.5241676648        1.7176372304
 C         -2.3857476594       -2.1296259736        0.2021858852
 C         -2.3493043159       -3.0347560352       -0.8417515764
 C         -1.1830631996       -3.7424512318       -1.0780670384
 C         -0.0759280830       -3.5362438654       -0.2682159741
 C         -0.1298595297       -2.6275885220        0.7763514704
 C         -1.2936108238       -1.9125530902        1.0154471763
 H         -1.3535082754       -1.1943519424        1.8186917026
 H          0.7257488062       -2.4598538147        1.4116698119
 H          0.8321004828       -4.0908774322       -0.4471374137
 H         -1.1391855075       -4.4532342199       -1.8874626251
 H         -3.2368673680       -3.1836253005       -1.4349538178
 H         -4.5594961486       -0.5604924586       -1.5728986828
 H         -3.4414855814        0.5853242738       -3.2793310966
 H         -1.5863096801        2.0781617411       -3.9208703366
 H         -0.0604724389        2.9726931351       -2.2116065787
 H         -0.6933288102        2.4682239039        1.4553419716
 C          0.2952162735        3.9617769195        0.2953311120
 C         -0.6979390436        5.0625522679        0.5097156338
 C          0.4254730502        4.8661836120        1.4819986908
 H          1.2296103276        5.5866514164        1.4950048709
 H          0.1937906506        4.4543950623        2.4539518876
 H         -0.6678058201        5.9201357700       -0.1446119484
 H         -1.6928964901        4.7818727152        0.8222061550
 H          1.0216198450        4.0826118298       -0.4970464325
