  62
        -98.94307775
 C         -1.8515187894       -0.7917509195        0.7314894498
 C         -2.8217352595       -1.1975728190       -0.2176696804
 C         -4.1647431695       -0.6202466693       -0.0491457999
 C         -4.4023846895        0.2289727701        0.9657431307
 C         -5.7029169496        0.9374715098        1.2077979912
 C         -5.7330147698        2.2986779402        0.4983831621
 C         -5.3099129699        2.2409716111       -0.9696539480
 H         -5.3988307001        3.2521638814       -1.3728281574
 H         -4.2539644999        1.9657323513       -1.0256914083
 C         -6.1331323699        1.2726572716       -1.8306612385
 H         -7.0703237999        1.0343780812       -1.3263458086
 H         -6.3874144201        1.7693777821       -2.7693596282
 C         -5.4090335298       -0.0248142781       -2.1943392494
 H         -4.4279552099        0.2090140723       -2.6153422594
 H         -5.9877460799       -0.5301667477       -2.9720249096
 C         -5.2149118796       -1.0230181288       -1.0461933900
 H         -6.1698349995       -1.2028439492       -0.5486496400
 H         -4.8697072696       -1.9655320485       -1.4806831706
 H         -6.7438571498        2.7039733300        0.5721740624
 H         -5.0558492398        2.9772236800        1.0227215824
 H         -6.5220496595        0.3139412999        0.8549139409
 H         -5.8144789095        1.0950186191        2.2819274513
 O         -3.4530030895        0.5793199396        1.8710154608
 C         -2.1629187894        0.0884435198        1.7722386503
 O         -1.3943062494        0.4954813993        2.6677160605
 H          1.3496080604        0.7395794006        1.0573296404
 C          1.2234804703        0.5014754012        0.0112762002
 C          0.3534152104       -0.5106140286       -0.3712613403
 C          0.1866067903       -0.7713840078       -1.7279323305
 C          0.8742336301       -0.0317727171       -2.6721661001
 C          1.7530230900        0.9653487627       -2.2865990896
 C          1.9247973302        1.2364994019       -0.9348931794
 N          2.8099995801        2.2453672817       -0.5110406689
 S          3.9580274203        1.8597597611        0.6447761108
 O          3.3386450904        1.7033110303        1.9352876307
 O          4.9535984201        2.9032227213        0.5342062813
 C          4.6297915404        0.3075775716        0.0799994497
 C          5.5754524103        0.3303745123       -0.9267283004
 C          6.0445978803       -0.8704424974       -1.4333234911
 C          5.5537244205       -2.0676913677       -0.9347202718
 C          4.6059707906       -2.0739615284        0.0767767883
 C          4.1369450506       -0.8755465188        0.5913056391
 H          3.4042482006       -0.8359359394        1.3811027792
 H          4.2258244208       -3.0057772387        0.4640969877
 H          5.9129754806       -3.0028628174       -1.3340665824
 H          6.7860772902       -0.8698204568       -2.2158584012
 H          5.9356714901        1.2830071025       -1.2800682898
 H          3.2394529100        2.7558678822       -1.2698188886
 H          2.2934740799        1.5386620532       -3.0246122493
 H          0.7294953000       -0.2383333865       -3.7216569902
 H         -0.5109291097       -1.5339603677       -2.0354400208
 C         -0.4074001494       -1.2715397793        0.6886745893
 H          0.0196659407       -0.9983588599        1.6633787994
 C         -0.2884153793       -2.7727146392        0.5183893884
 C          0.9640365809       -3.4577665394        0.9710973678
 C         -0.3116094590       -3.6460819700        1.7349595478
 H         -0.8169253389       -4.5983286500        1.6755151773
 H         -0.4079232790       -3.1616379906        2.6963934581
 H          1.7310640409       -2.8452543796        1.4204217481
 H          1.3394228109       -4.2833211290        0.3865811473
 H         -0.7808492693       -3.1506416487       -0.3668789118
 O         -2.6040960395       -1.9997387184       -1.1623809009
