  62
        -98.94175393
 C         -2.1911668108       -1.2656472053        0.3040387148
 C         -1.7956462075       -0.3246006023       -0.6788666079
 C         -2.6098414606        0.9013074912       -0.7536660762
 C         -3.6398993045        1.0690931892        0.0943896861
 C         -4.5314910799        2.2757348158        0.1392112246
 C         -4.0019334723        3.3277133591        1.1233231139
 C         -2.5199708898        3.6535693192        0.9375823326
 H         -1.9269104223        2.7715846434        1.1920544897
 H         -2.2632337773        4.4301313460        1.6615879116
 C         -2.1466006739        4.1260323760       -0.4745381239
 H         -1.4866355738        4.9920014512       -0.3894651526
 H         -3.0422974547        4.4522469663       -1.0042322963
 C         -1.4070606874        3.0848490452       -1.3167753181
 H         -0.5623213094        2.6932082016       -0.7448405985
 H         -0.9999107755        3.5909210302       -2.1961329923
 C         -2.2494834743        1.9033633779       -1.8149257919
 H         -1.6554542363        1.3550393575       -2.5520056502
 H         -3.1477319406        2.2777347031       -2.3101951037
 H         -4.1467360896        2.9559374950        2.1405056628
 H         -4.5932565998        4.2378334988        1.0080108794
 H         -5.5235962650        1.9562764368        0.4631020433
 H         -4.6066575048        2.7025893261       -0.8590728260
 O         -3.9619665431        0.1628469304        1.0529005389
 C         -3.2417266835       -1.0134334844        1.1898899487
 O         -3.6232130847       -1.7392630679        2.1299755045
 O         -0.8236801930       -0.4847461483       -1.4585552175
 C         -1.4641013387       -2.5870723716        0.4834027970
 C          0.0325005287       -2.3906498201        0.4332024051
 C          0.8851367663       -3.1583601790       -0.3492749651
 C          2.2529108941       -2.9462649909       -0.3150099161
 C          2.7997445568       -1.9595913145        0.4831552694
 C          1.9531899071       -1.1679798855        1.2498947616
 C          0.5869217961       -1.3991328905        1.2340631487
 H         -0.0678002689       -0.7864924928        1.8429345664
 N          2.4922752738       -0.1330115716        2.0307896064
 S          3.7403211397        0.7803088425        1.3916831206
 O          4.9969803733        0.1213202322        1.6526651411
 O          3.5883219602        2.0896780113        1.9893226456
 C          3.4689124241        0.8622899200       -0.3703845463
 C          2.2195287704        1.2160403672       -0.8373029228
 C          2.0030624466        1.2697216819       -2.2037061859
 C          3.0391702654        0.9788164151       -3.0772835014
 C          4.2926221289        0.6363478242       -2.5942786214
 C          4.5115596438        0.5732539859       -1.2277036508
 H          5.4655319215        0.2977308822       -0.8078167079
 H          5.0965199081        0.4114826254       -3.2766301852
 H          2.8647295842        1.0167375332       -4.1409590936
 H          1.0211049665        1.5154309026       -2.5730952813
 H          1.4251864271        1.4285969118       -0.1392487229
 H          1.8024766835        0.4501983287        2.4803173031
 H          3.8632654203       -1.7880114664        0.5259526690
 H          2.9027931501       -3.5560420179       -0.9236086252
 H          0.4811716440       -3.9163776214       -0.9990676926
 H         -1.7170737331       -2.9112717866        1.5072463050
 C         -1.9551325816       -3.6864354265       -0.4492514521
 C         -3.3157555483       -3.6297035120       -1.0757449453
 C         -2.0929074881       -3.4698121133       -1.9254089492
 H         -1.8239636020       -4.2768233327       -2.5910601580
 H         -1.8549631398       -2.4895295899       -2.3061955719
 H         -3.8810027311       -4.5468468916       -1.1495084405
 H         -3.9255360721       -2.7590538994       -0.8815888218
 H         -1.6231265706       -4.6687409657       -0.1279055889
