  62
        -98.94351383
 C          1.8581439764        0.8249019452        0.7578169543
 C          2.1543023654        0.4300267086       -0.5691777498
 C          3.5778929639        0.4473989709       -0.9361334020
 C          4.4880435562        0.8525748255       -0.0316469158
 C          5.9721346761        0.8655456140       -0.2549591982
 C          6.6115735290       -0.4560535357        0.1937230447
 C          5.9031876872       -1.6989850299       -0.3451960537
 H          6.4581608150       -2.5695994725        0.0111902205
 H          4.9025478812       -1.7563935608        0.0895249700
 C          5.7929970941       -1.7536126133       -1.8753251868
 H          6.5097704710       -1.0641068618       -2.3228045029
 H          6.0585667855       -2.7588490760       -2.2093524401
 C          4.3951501080       -1.4569551231       -2.4218050007
 H          4.3777850108       -1.7358042870       -3.4787474386
 H          3.6596843658       -2.0805584834       -1.9069786072
 C          3.9377480578        0.0040962548       -2.3261929190
 H          3.0229427559        0.1045822392       -2.9173353565
 H          4.6995617220        0.6575299027       -2.7559715495
 H          7.6548140363       -0.4618004960       -0.1272744093
 H          6.5918521754       -0.4971371840        1.2853442683
 H          6.1744738283        1.0396752530       -1.3098563151
 H          6.4007974083        1.6823424926        0.3281183081
 O          4.1599900463        1.2544604977        1.2235304596
 C          2.8434652167        1.2350769395        1.6546974433
 O          2.6822468491        1.5979568617        2.8380777714
 O          1.2788627644        0.0791922680       -1.4017670577
 C          0.4197886790        0.8135874193        1.2405673949
 C         -0.1852774082       -0.5586720678        1.0683172144
 C          0.5641202971       -1.6810127301        1.4123234409
 C          0.0432647437       -2.9514048894        1.2660860430
 C         -1.2449614733       -3.1308328581        0.7933688391
 C         -2.0084049549       -2.0185229150        0.4637906353
 C         -1.4764436467       -0.7429170695        0.5992592946
 H         -2.0857869303        0.1061686329        0.3389021716
 N         -3.3120389967       -2.1661924395       -0.0296934651
 S         -4.5150144839       -1.0991019577        0.4253691320
 O         -4.3326994419       -0.6335415311        1.7803453103
 O         -5.7485841570       -1.8100368385        0.1618386548
 C         -4.3862160452        0.2610041269       -0.7163288147
 C         -4.6840411114        1.5330982543       -0.2692625173
 C         -4.6338343425        2.5891990225       -1.1658567655
 C         -4.2881263494        2.3553943519       -2.4877205048
 C         -3.9936608893        1.0715059304       -2.9210126436
 C         -4.0465805879        0.0106931170       -2.0310026139
 H         -3.8193103696       -0.9974779988       -2.3346902616
 H         -3.7212091032        0.8939467773       -3.9489458363
 H         -4.2461607468        3.1786629387       -3.1833828006
 H         -4.8625452982        3.5883806031       -0.8300256531
 H         -4.9366233011        1.6713204583        0.7701034510
 H         -3.6484158369       -3.1166298301       -0.0780074301
 H         -1.6542196698       -4.1231595804        0.6794035067
 H          0.6417276703       -3.8111638323        1.5282751293
 H          1.5682133949       -1.5424856379        1.7907633967
 H          0.4557299077        1.0344739227        2.3180583198
 C         -0.3644285504        1.9083708181        0.5461378148
 C         -1.5111943637        2.5788371738        1.2390514358
 C         -0.2233036429        3.3172454961        1.0354499657
 H         -0.1953673004        4.1154899981        0.3093150915
 H          0.4166938077        3.4814360340        1.8904408504
 H         -2.3666798222        2.8706366123        0.6487675178
 H         -1.7582665595        2.2461348011        2.2362942199
 H         -0.4329526627        1.7533111073       -0.5246781726
