  62
        -98.93944748
 C         -1.1325560450       -1.7519736029       -0.0410829034
 C         -2.2083705953       -1.4107011812        0.8093740608
 C         -3.0704969139       -0.3143637299        0.3467855488
 C         -2.7963216598        0.3002726546       -0.8184133421
 C         -3.5935568829        1.4053182031       -1.4604214956
 C         -3.6497070161        2.7422181362       -0.6961741775
 C         -4.8740679326        2.9010740205        0.2140146046
 H         -5.2434146761        3.9253590820        0.1328341829
 H         -5.6712584718        2.2516482746       -0.1495454933
 C         -4.6327073369        2.6300937392        1.7021930583
 H         -4.1358145328        3.4953497889        2.1472985163
 H         -5.6058794442        2.5262551334        2.1868430483
 C         -3.7855280160        1.3990513329        2.0253213211
 H         -3.8537708922        1.2102725659        3.0987641317
 H         -2.7339158680        1.6117709228        1.8169695388
 C         -4.1829557089        0.1253939284        1.2539525111
 H         -5.0979147884        0.2896688539        0.6867001150
 H         -4.3559422640       -0.6937920465        1.9550556455
 H         -3.6803066729        3.5348320049       -1.4455445513
 H         -2.7339418642        2.8715332009       -0.1200983081
 H         -3.1286906822        1.5692924772       -2.4341946472
 H         -4.6106679860        1.0465313423       -1.6339403562
 O         -1.7447669577       -0.0565026115       -1.6045516248
 C         -0.8838625433       -1.0793217045       -1.2386134228
 O          0.0386629377       -1.2911595220       -2.0446207140
 O         -2.4379622462       -1.9927742871        1.9048767830
 C         -0.1732266948       -2.8513864648        0.3773077459
 C          1.2239800551       -2.2878368582        0.4580315261
 C          2.3357110255       -2.8982405161       -0.1059412656
 C          3.5808137466       -2.2959948504       -0.0318341246
 C          3.7466418411       -1.0803637420        0.6055305316
 C          2.6424072449       -0.4684139482        1.1851886978
 C          1.3997709668       -1.0758561073        1.1155790961
 H          0.5414792825       -0.5926369058        1.5671360291
 N          2.7937093738        0.7781644140        1.8321161573
 S          3.2770880238        2.0598395865        0.8655952343
 O          4.6380300143        1.8380863908        0.4487457104
 O          3.0359998292        3.2448836832        1.6581008259
 C          2.1910220164        2.0360115755       -0.5477050900
 C          1.0202004465        2.7658115370       -0.4963399298
 C          0.1596957905        2.7274526616       -1.5810472689
 C          0.4761967696        1.9524111200       -2.6855296819
 C          1.6501329411        1.2172991232       -2.7174808551
 C          2.5195212786        1.2587575486       -1.6398903998
 H          3.4437933345        0.7046335310       -1.6317485854
 H          1.8829519975        0.6015433068       -3.5704167032
 H         -0.2005888019        1.9110698093       -3.5241178488
 H         -0.7561044729        3.2965523418       -1.5623365296
 H          0.8145708624        3.3602754863        0.3801856712
 H          1.9702100150        1.0524710721        2.3498267325
 H          4.7041406101       -0.5871026846        0.6509284576
 H          4.4343159936       -2.7788745107       -0.4830197118
 H          2.2274537178       -3.8413131312       -0.6157047708
 H         -0.4872375656       -3.1503600923        1.3884631997
 C         -0.2950646227       -4.0463121414       -0.5441170717
 C          0.0101445646       -5.4241626182       -0.0394330665
 C         -1.4070958672       -5.0241896815       -0.3161976725
 H         -1.9063441725       -5.4473693666       -1.1748519869
 H         -2.0627153831       -4.8421110206        0.5229105787
 H          0.4825207630       -6.1265341344       -0.7095052407
 H          0.3162274926       -5.5235353246        0.9910276152
 H         -0.0418136707       -3.8066129505       -1.5706177935
