  62
        -98.94525899
 C         -0.8483741995       -1.1638992998        0.2879767494
 C         -1.6305630192       -0.5306101803        1.2864085700
 C         -2.4795228795        0.5802900998        0.8372679408
 C         -2.4312248100        0.9624505403       -0.4516416191
 C         -3.3275625604        1.9946495105       -1.0712396483
 C         -4.6053749605        1.3497752306       -1.6279692780
 C         -5.3121240800        0.4183836201       -0.6431570182
 H         -4.6751083499       -0.4476624999       -0.4490778988
 H         -6.2139323702        0.0481047501       -1.1354872180
 C         -5.6921194596        1.0750158695        0.6913856723
 H         -6.7144120895        0.7871213692        0.9456443925
 H         -5.6780117798        2.1606403395        0.5883579727
 C         -4.8092505191        0.6677113891        1.8725733617
 H         -4.7540763289       -0.4225522409        1.9312188413
 H         -5.2854865088        1.0193380086        2.7918077421
 C         -3.3785415492        1.2212473293        1.8564810814
 H         -2.9286385288        1.0072848289        2.8307568512
 H         -3.4048358594        2.3045722993        1.7223200119
 H         -4.3418413708        0.7705395010       -2.5157396284
 H         -5.2889646008        2.1448421906       -1.9311244875
 H         -2.7916652808        2.4740032309       -1.8907892683
 H         -3.5845544502        2.7438810201       -0.3249183579
 O         -1.5907799103        0.4018905408       -1.3548445696
 C         -0.7699290500       -0.6657052592       -1.0136752804
 O         -0.0427312404       -1.0567198487       -1.9435179308
 O         -1.6292516587       -0.8876814908        2.4958042199
 C         -0.0326228892       -2.3763700598        0.6966817586
 C          1.3753449906       -2.2712230594        0.1710125481
 C          1.9480566504       -3.1925053990       -0.6958089525
 C          3.2485036902       -3.0222465387       -1.1366119129
 C          3.9988559302       -1.9347455687       -0.7307341928
 C          3.4342063204       -1.0075495692        0.1387057579
 C          2.1363064006       -1.1855116695        0.5876586383
 H          1.7075752108       -0.4661889599        1.2713079487
 N          4.1730327605        0.1013781507        0.5753231180
 S          3.4255433505        1.5175509905        1.0193553489
 O          4.4766178703        2.5113658506        0.9405835889
 O          2.8077043210        1.3748522698        2.3149449291
 C          2.1891712099        1.8953018408       -0.2106009005
 C          2.4222419495        1.6108285114       -1.5406577207
 C          1.4870305890        2.0049549417       -2.4834368801
 C          0.3516212991        2.6919637014       -2.0866062594
 C          0.1314967196        2.9718945808       -0.7473241892
 C          1.0540417800        2.5634349605        0.2012243503
 H          0.9119407904        2.7452524800        1.2552052704
 H         -0.7552435303        3.5005121705       -0.4355692487
 H         -0.3686526912        3.0038129916       -2.8264332290
 H          1.6458362587        1.7716573921       -3.5237243803
 H          3.3144553194        1.0815470416       -1.8327022512
 H          5.0528115903        0.2557929010        0.1063824677
 H          5.0108673901       -1.7992139685       -1.0803350831
 H          3.6808411700       -3.7423500783       -1.8145032134
 H          1.3700206404       -4.0317535889       -1.0450724626
 H          0.0168618512       -2.3150408003        1.7973717186
 C         -0.7018211891       -3.7029854298        0.3649650383
 C         -2.1945606691       -3.8188436399        0.2972340989
 C         -1.3758576896       -3.9528525493       -0.9497177815
 H         -1.2820753897       -4.9320806791       -1.3959509119
 H         -1.3893082800       -3.1458422390       -1.6653738912
 H         -2.6600767089       -4.7020011002        0.7085063087
 H         -2.7730089692       -2.9169507601        0.4364126995
 H         -0.1777738589       -4.5424955299        0.8116071878
