  62
        -98.93703618
 C         -1.8130857907       -0.6185171204       -0.2379743113
 C         -3.0999855207       -1.2004115405       -0.1759782921
 C         -4.1294009606       -0.4372917716        0.5495321293
 C         -3.8027660004        0.7386680074        1.1128433813
 C         -4.6712772102        1.6620066960        1.9304949630
 C         -6.1074454503        1.9012885570        1.4457546536
 C         -6.2884334505        1.8877694296       -0.0791412364
 H         -6.8241974705        2.7896800801       -0.3809018247
 H         -5.3149450106        1.9067052004       -0.5719435865
 C         -7.0869556407        0.6797181105       -0.5746009983
 H         -7.9358061606        0.5226313094        0.0945212816
 H         -7.4895702308        0.9065101722       -1.5647724879
 C         -6.2973073508       -0.6230571594       -0.6951032507
 H         -7.0009472708       -1.4213064189       -0.9435099019
 H         -5.5891791409       -0.5513324880       -1.5250834706
 C         -5.5064428006       -1.0362170016        0.5569225885
 H         -6.0494666404       -0.7889182131        1.4659353890
 H         -5.3639464307       -2.1198958515        0.5210815766
 H         -6.7705575502        1.1593335662        1.8884214325
 H         -6.4151820701        2.8711312463        1.8404989854
 H         -4.6986393701        1.2826189843        2.9563111724
 H         -4.1309668201        2.6114577560        1.9546561046
 O         -2.5451816404        1.2586192574        1.0350320620
 C         -1.5236580205        0.6059069485        0.3619161107
 O         -0.4350161505        1.2074588984        0.3728696216
 O         -3.3751154909       -2.3171440696       -0.6922798440
 C         -0.7106386708       -1.3472068092       -0.9824310128
 C          0.4728596393       -1.5989646508       -0.0814058734
 C          0.2555779794       -2.0331140831        1.2236592759
 C          1.3137542996       -2.2648895146        2.0811620254
 C          2.6178026895       -2.0833375340        1.6539212555
 C          2.8476820093       -1.6645701517        0.3513722162
 C          1.7810882192       -1.4282416302       -0.5088497833
 H          1.9809677391       -1.1013538085       -1.5176783227
 N          4.1779292593       -1.4935145111       -0.0882866838
 S          5.0820808995       -0.2591240223        0.5929959682
 O          6.4051867194       -0.3854833514        0.0256626278
 O          4.9873599597       -0.3468746348        2.0270281181
 C          4.3241569595        1.2447735088        0.0034188209
 C          4.9856684094        2.0101316803       -0.9373129879
 C          4.3644340794        3.1437752612       -1.4353359858
 C          3.0902391695        3.4797654806       -1.0018541651
 C          2.4364156796        2.6976577490       -0.0622348763
 C          3.0599808696        1.5717775581        0.4518028017
 H          2.5647052296        0.9517630268        1.1813919307
 H          1.4335707096        2.9269264085        0.2607665042
 H          2.6006561195        4.3552159013       -1.3992534735
 H          4.8699109193        3.7566544924       -2.1643418149
 H          5.9697525593        1.7038626408       -1.2537416085
 H          4.2634386891       -1.4441552694       -1.0943669837
 H          3.4544288496       -2.2420774552        2.3140612551
 H          1.1236457297       -2.5932202063        3.0921050748
 H         -0.7612043305       -2.1789685436        1.5626366958
 H         -1.1413183010       -2.3213743187       -1.2599102344
 C         -0.3553359610       -0.5945496371       -2.2487701015
 C          0.1159485588       -1.3320032250       -3.4659110229
 C         -1.2539208812       -0.7254115750       -3.4405887916
 H         -1.4442576112        0.1498480061       -4.0433420601
 H         -2.1046076612       -1.3848691951       -3.3481692126
 H          0.8658326387       -0.8710139140       -4.0914155522
 H          0.1934295887       -2.4069859151       -3.4021300347
 H          0.0667757991        0.3836987325       -2.0448150299
