  62
        -98.93293999
 C          2.4493545698        0.2578602586        0.0993422770
 C          3.5649189693        0.2854015199        0.9673528710
 C          4.7905672279       -0.3669783069        0.4784379291
 C          4.7867592603       -0.9516759436       -0.7320037816
 C          5.9027307304       -1.7046701964       -1.4125161358
 C          7.3163886368       -1.1138879594       -1.3203369758
 C          7.3784964821        0.4201610887       -1.2864279583
 H          8.0848748190        0.7634206175       -2.0445294946
 H          6.4026707383        0.8398200436       -1.5366199662
 C          7.8381737796        0.9692304842        0.0663127206
 H          8.6735233240        0.3635895376        0.4244948835
 H          8.2096921143        1.9869891605       -0.0753416697
 C          6.7621416603        1.0273729512        1.1498694566
 H          6.0333331516        1.8053971643        0.9070898196
 H          7.2427123610        1.3205018245        2.0864187001
 C          5.9862389373       -0.2792044968        1.3829519011
 H          6.6338170046       -1.1465894254        1.2808080304
 H          5.5914663785       -0.2576661224        2.4025599395
 H          7.8680522923       -1.4815793241       -2.1872105833
 H          7.8197705623       -1.5087385988       -0.4389468808
 H          5.6011049806       -1.7708637800       -2.4606216721
 H          5.9146495745       -2.7246853972       -1.0171797526
 O          3.6833429325       -0.9619317647       -1.5332309946
 C          2.4947189422       -0.3627043582       -1.1477108413
 O          1.5786494126       -0.4482608186       -1.9871565533
 O          3.5355025927        0.8205921045        2.1085257647
 C          1.1564632558        0.9155845746        0.5421127853
 C          0.0344656755       -0.0932544904        0.5792185576
 C          0.2584129789       -1.3307982828        1.1771056310
 C         -0.7450907548       -2.2776750112        1.2425233099
 C         -1.9985590089       -2.0114953791        0.7201274610
 C         -2.2395604535       -0.7749440839        0.1391756619
 C         -1.2282408594        0.1773611248        0.0766485037
 H         -1.4317937976        1.1333275656       -0.3803417674
 N         -3.5101164375       -0.4960204086       -0.3928609557
 S         -4.8515398076       -1.0015370324        0.5014951834
 O         -4.6452322663       -0.7178872879        1.9039799850
 O         -5.1303046146       -2.3772615748        0.1728554496
 C         -6.1260097759        0.0518807821       -0.1636955252
 C         -6.7929830528       -0.3415785341       -1.3082436504
 C         -7.7660504330        0.4925326046       -1.8356434393
 C         -8.0532077955        1.6990358616       -1.2146326367
 C         -7.3757619557        2.0799081448       -0.0659417432
 C         -6.4011361298        1.2509410371        0.4665941303
 H         -5.8574575822        1.5014868932        1.3634752889
 H         -7.6032458846        3.0170322420        0.4161712990
 H         -8.8119974471        2.3455555197       -1.6264329530
 H         -8.2971624989        0.1989630306       -2.7266833562
 H         -6.5426732012       -1.2913998105       -1.7511502521
 H         -3.6008105940        0.4657780972       -0.6900142856
 H         -2.7920235278       -2.7403320725        0.7645791157
 H         -0.5517425136       -3.2346233851        1.7044656729
 H          1.2359401043       -1.5431257679        1.5889350497
 H          1.3402684274        1.2539026966        1.5733373576
 C          0.8635933368        2.1248951971       -0.3216720218
 C          0.1108873319        3.2945851741        0.2372580671
 C          1.5804429590        3.4084426788       -0.0321840957
 H          1.9094217747        4.0145603716       -0.8629033635
 H          2.2569900166        3.4179444427        0.8099428393
 H         -0.5682761363        3.8286647945       -0.4103708475
 H         -0.2114656361        3.2363077192        1.2659863595
 H          0.7085361382        1.8621195416       -1.3623792784
