  62
        -98.93940343
 C         -2.4140759100       -0.9372000696       -0.6460142910
 C         -3.6275550301       -0.8646570201        0.0892223789
 C         -4.4524414200        0.3307192201       -0.1213535603
 C         -4.0375371998        1.2665952208       -0.9939717995
 C         -4.7522959796        2.5553219211       -1.2769302586
 C         -4.2580141396        3.6800889703       -0.3566708077
 C         -4.2154791898        3.2944864092        1.1220345321
 H         -3.4602122899        2.5184152590        1.2673458515
 H         -3.8824186498        4.1735959287        1.6779163228
 C         -5.5561628299        2.8085694789        1.6903997915
 H         -5.7188790100        3.2856447181        2.6591303919
 H         -6.3710827598        3.1193327894        1.0356017317
 C         -5.6384878601        1.2980735587        1.9191674504
 H         -4.7704376802        0.9667006282        2.4949598902
 H         -6.5276419702        1.0934512183        2.5214908701
 C         -5.7352021901        0.4359227797        0.6541163997
 H         -6.5414773699        0.8057977102        0.0174140899
 H         -5.9820555402       -0.5835284605        0.9646198489
 H         -3.2488714596        3.9621456504       -0.6654902173
 H         -4.9089812395        4.5459886505       -0.4901600371
 H         -5.8221156897        2.4065439911       -1.1440195588
 H         -4.5594373895        2.8349247018       -2.3140026483
 O         -2.8807056597        1.1585097812       -1.6916702794
 C         -2.0333374998        0.0716690610       -1.5306846902
 O         -1.0044899598        0.1434537214       -2.2331762300
 O         -4.0066904703       -1.7682408707        0.8813916482
 C         -1.5587977102       -2.1736983099       -0.4224914019
 C         -0.4079173403       -1.8827905807        0.5121082185
 C         -0.3556784205       -2.4653623117        1.7730017381
 C          0.7008964095       -2.2019650825        2.6272954084
 C          1.7210225596       -1.3490779323        2.2467192791
 C          1.6757205098       -0.7573412213        0.9905573196
 C          0.6219470699       -1.0346069405        0.1301185293
 H          0.5840278400       -0.5646552498       -0.8416487404
 N          2.6835651699        0.1473549789        0.5986391104
 S          4.2884119599       -0.3348048514        0.8079069502
 O          4.5129820398       -1.6200867310        0.1826402793
 O          4.6093464297       -0.2562079925        2.2109323103
 C          5.1443824601        0.9498633592       -0.0798069087
 C          5.5827594102        0.7111488701       -1.3679692288
 C          6.2260102804        1.7281254706       -2.0559197880
 C          6.4148041004        2.9601253901       -1.4483953470
 C          5.9689196303        3.1843319992       -0.1541880069
 C          5.3267645701        2.1714557287        0.5397605523
 H          4.9714763100        2.2969825979        1.5491276223
 H          6.1198012103        4.1431512988        0.3148759739
 H          6.9151321506        3.7497305705       -1.9864026864
 H          6.5761356205        1.5560296913       -3.0609705081
 H          5.4205763201       -0.2641826495       -1.7982112396
 H          2.5385583301        0.4621491096       -0.3520947094
 H          2.5511090095       -1.1395597629        2.9014692494
 H          0.7303436793       -2.6636498232        3.6028929880
 H         -1.1563135206       -3.1203189319        2.0852957675
 H         -2.2220980003       -2.8885680902        0.0828754575
 C         -1.0712082501       -2.8060123690       -1.7115076423
 C         -0.6553416203       -4.2451946190       -1.7021055133
 C         -1.9217859501       -3.8350839084       -2.3907546632
 H         -1.9521389900       -3.8469707175       -3.4698823132
 H         -2.8618011802       -4.0927958886       -1.9249690235
 H          0.1884613398       -4.5411516386       -2.3063932435
 H         -0.7363045104       -4.7825398797       -0.7692862838
 H         -0.5169025500       -2.1262629585       -2.3451392117
