  62
        -98.94342513
 C         -2.5070484382       -1.1414699940        0.0063353219
 C         -3.4519867697       -0.5832074277        0.9093494126
 C         -4.3938557323        0.3908192514        0.3504783141
 C         -4.3451440369        0.6846496557       -0.9610913304
 C         -5.2523367185        1.6366914728       -1.6918674943
 C         -4.8218585180        3.1068803168       -1.5959922457
 C         -5.0437954631        3.7621907984       -0.2321993155
 H         -4.9075076220        4.8369479561       -0.3677435567
 H         -6.0754706330        3.6023407046        0.0825604438
 C         -4.0869719477        3.2783441406        0.8665309742
 H         -3.2304294295        2.7767570049        0.4098857917
 H         -3.6974004170        4.1388661733        1.4149719125
 C         -4.7213751064        2.3381043210        1.8915361891
 H         -5.4928345992        2.8720651122        2.4507048828
 H         -3.9463946799        2.0283461710        2.5972187979
 C         -5.3443713851        1.0729154403        1.2872556593
 H         -5.5661567532        0.3774056879        2.1002702514
 H         -6.2734902667        1.3188860849        0.7735419419
 H         -3.7663721774        3.1802589631       -1.8682226546
 H         -5.3963020160        3.6631012760       -2.3403812308
 H         -5.2330583931        1.3397915744       -2.7427426347
 H         -6.2714826960        1.5296757440       -1.3192934788
 O         -3.4447851149        0.1111290940       -1.8001273662
 C         -2.4940712245       -0.7913595694       -1.3436019539
 O         -1.7265038204       -1.1896122711       -2.2445593412
 H          0.2167894979       -1.0777376274       -1.1938719250
 C          0.5956651229       -1.0216895396       -0.1839162599
 C         -0.1775822945       -1.5104335333        0.8595541640
 C          0.3218435298       -1.4223320504        2.1537560919
 C          1.5623211744       -0.8574067483        2.3932313608
 C          2.3262886482       -0.3642457010        1.3508114680
 C          1.8355057592       -0.4452313701        0.0540226104
 N          2.5863459756        0.0797543557       -1.0114659084
 S          4.2050227811       -0.3409428478       -1.1398405358
 O          4.5348148527       -0.1654931321       -2.5373143289
 O          4.4608004959       -1.6474797234       -0.5787804669
 C          5.0453009049        0.9068157827       -0.1865691172
 C          4.8002552943        2.2319142678       -0.4893739196
 C          5.4538811675        3.2156646592        0.2352551277
 C          6.3388356472        2.8599598897        1.2423956368
 C          6.5766562919        1.5251680099        1.5319433993
 C          5.9252055355        0.5360832266        0.8113419531
 H          6.0740382606       -0.5142823415        1.0047756061
 H          7.2648868579        1.2508502331        2.3151920872
 H          6.8458328113        3.6280805915        1.8047557754
 H          5.2709930225        4.2547444258        0.0132429749
 H          4.1072004717        2.4658160333       -1.2803926619
 H          2.1209677780        0.0027837863       -1.9045339333
 H          3.2920114670        0.0789257551        1.5311725382
 H          1.9376212361       -0.7966829125        3.4033272861
 H         -0.2749132237       -1.7914695453        2.9750847923
 C         -1.5238583161       -2.1414147318        0.5917811191
 H         -1.9551153113       -2.4268162594        1.5608224561
 C         -1.3697974781       -3.3946434096       -0.2482437495
 C         -0.8716276473       -4.6485927133        0.4026835237
 C         -2.3033847282       -4.5451937623       -0.0283427762
 H         -2.6293579541       -5.1143922621       -0.8859307491
 H         -3.0592296730       -4.4358084827        0.7356969243
 H         -0.6568569401       -4.6116101512        1.4599177920
 H         -0.2090150999       -5.2905166244       -0.1574145302
 H         -1.0572850301       -3.1975440018       -1.2656331145
 O         -3.5089833433       -0.8952977870        2.1280779332
