  62
        -98.93929389
 C         -2.1847116000       -1.2397989104        0.5247191500
 C         -2.5289256303       -0.6958286396       -0.7374017396
 C         -3.6707513902        0.2330967505       -0.7445998787
 C         -4.2913511100        0.5321428198        0.4103606816
 C         -5.4271240599        1.5030541798        0.5508740925
 C         -4.9146187997        2.9189362795        0.8499649033
 C         -3.8002215099        3.3838087001       -0.0878838866
 H         -3.5385720498        4.4048541299        0.1988170340
 H         -2.9128675799        2.7678909299        0.0794101628
 C         -4.1679554202        3.3481230911       -1.5779804166
 H         -5.2517357402        3.3019292612       -1.6898490964
 H         -3.8330573003        4.2777362514       -2.0428787560
 C         -3.5282251405        2.2010654916       -2.3625826775
 H         -3.6749847907        2.3956357923       -3.4281532473
 H         -2.4505100504        2.1860433814       -2.1791717977
 C         -4.0855900005        0.8018113414       -2.0725234583
 H         -5.1735082005        0.8129189915       -2.1635041280
 H         -3.6822972707        0.1222885719       -2.8288934188
 H         -4.5316541695        2.9402952588        1.8731531732
 H         -5.7561582397        3.6111713696        0.7882461339
 H         -6.0132228901        1.5035427004       -0.3660010874
 H         -6.0600109297        1.1741075193        1.3768219724
 O         -3.9117977497        0.0156436390        1.6079904212
 C         -2.8455593398       -0.8648271611        1.6967150504
 O         -2.5818894295       -1.2326672119        2.8595227201
 H          0.0480299301        0.2251297692        0.8613737705
 C          0.5977521599       -0.3858924303        0.1536012900
 C          0.1791591498       -1.6904749002       -0.0850065908
 C          0.9038958196       -2.4583870396       -0.9867109115
 C          2.0080386995       -1.9306313792       -1.6342856114
 C          2.4162927896       -0.6315009694       -1.3953635406
 C          1.6967799398        0.1454689500       -0.4972338799
 N          2.1378153200        1.4732894598       -0.2360753092
 S          3.2711463402        1.5261327589        1.0130763806
 O          2.8240554004        0.7596396482        2.1577818302
 O          3.5239482604        2.9291876288        1.2565571615
 C          4.6960105500        0.7545513093        0.2852390298
 C          5.4812843599        1.4906063799       -0.5802183999
 C          6.5703802197        0.8768085402       -1.1782124305
 C          6.8497553597       -0.4540354200       -0.9047246914
 C          6.0509594498       -1.1781628205       -0.0326521317
 C          4.9610720600       -0.5703418809        0.5700038989
 H          4.3113048301       -1.0926833013        1.2537431887
 H          6.2691432098       -2.2126368007        0.1780223475
 H          7.6962171496       -0.9304987297       -1.3735804819
 H          7.1954135096        1.4361153706       -1.8555407503
 H          5.2265923099        2.5220594500       -0.7593286391
 H          1.3754294500        2.0884297297        0.0163706814
 H          3.2650771095       -0.2072951491       -1.9063560505
 H          2.5540627693       -2.5388844888       -2.3386149019
 H          0.5917738695       -3.4674099094       -1.1996251921
 C         -1.0169381401       -2.1977421806        0.6839708591
 H         -0.7583026698       -2.1506714813        1.7559683291
 C         -1.3563919802       -3.6511096604        0.3851529482
 C         -2.7661914302       -4.1530166303        0.4713082082
 C         -2.0842023405       -4.0606953495       -0.8588392619
 H         -1.7899836107       -4.9788418292       -1.3458943326
 H         -2.3830648106       -3.2793272590       -1.5390116813
 H         -2.9348040502       -5.1295647006        0.8999942776
 H         -3.5412925001       -3.4365928805        0.7028757388
 H         -0.5885167402       -4.3277088207        0.7473748876
 O         -1.9237524005       -0.9613941989       -1.8070809099
