  62
        -98.93118085
 C          2.0776743952        0.7374900196        0.5837959769
 C          3.1877027142        0.8623860789       -0.2834466239
 C          4.2156658054       -0.1966614359       -0.2029062992
 C          4.0555072569       -1.2060236105        0.6701167951
 C          4.9546675333       -2.3891403804        0.9263994897
 C          6.4608835266       -2.0993977057        1.0224970179
 C          7.2605399263       -2.6377287592       -0.1651139524
 H          8.2963155300       -2.7841370520        0.1491957524
 H          6.8610822858       -3.6169472176       -0.4370619333
 C          7.2748921006       -1.7373798535       -1.3991776031
 H          7.8962132246       -0.8616150549       -1.1999083246
 H          7.7500770813       -2.2952616472       -2.2094719672
 C          5.9024005430       -1.2559680841       -1.8742060129
 H          5.1701815846       -2.0597512982       -1.8076036573
 H          5.9893567061       -0.9916853094       -2.9302374980
 C          5.3920052103       -0.0165821099       -1.1242625011
 H          6.2102153028        0.4423733247       -0.5619039650
 H          5.0634507444        0.7383079560       -1.8450657103
 H          6.6252446502       -1.0291029760        1.1367868375
 H          6.8350857125       -2.5818096378        1.9269235043
 H          4.5974357841       -2.8160739365        1.8663322008
 H          4.7692763534       -3.1398877256        0.1542202717
 O          2.9599571229       -1.2954214245        1.4794035217
 C          1.9618967673       -0.3423125276        1.4633150953
 O          1.0399622397       -0.5561438422        2.2780035211
 H         -1.6114449985        0.8953661233        0.8278472228
 C         -1.3287599546        1.0897865848       -0.1962329864
 C         -0.0425917496        1.5218581586       -0.4884049933
 C          0.3049902154        1.7452534304       -1.8167296209
 C         -0.6175500140        1.5321181926       -2.8242374986
 C         -1.8974562197        1.0968956346       -2.5303443956
 C         -2.2572005095        0.8766978985       -1.2055793851
 N         -3.5681095629        0.4827132469       -0.8838604832
 S         -3.8326531266       -0.5481698037        0.4257793385
 O         -3.7251177191        0.2118533030        1.6454614364
 O         -2.9966571403       -1.7230376565        0.3137613663
 C         -5.5416174479       -0.9702813787        0.1388527795
 C         -5.8639112262       -2.2001416744       -0.4021815555
 C         -7.1963400671       -2.4984873275       -0.6424178516
 C         -8.1775267254       -1.5655985227       -0.3428519570
 C         -7.8385881312       -0.3350827001        0.2005635928
 C         -6.5090269455       -0.0315278613        0.4454555623
 H         -6.1985431540        0.9063276296        0.8753905166
 H         -8.6043834716        0.3866386949        0.4346863989
 H         -9.2132791044       -1.7999317181       -0.5314031655
 H         -7.4629045779       -3.4554693177       -1.0612661611
 H         -5.0671697815       -2.8954422764       -0.6129513310
 H         -4.0874260617        0.1728885633       -1.6946642915
 H         -2.6152816689        0.9308014900       -3.3193532462
 H         -0.3351054348        1.7026249030       -3.8522027126
 H          1.3079585449        2.0667219456       -2.0498886141
 C          0.9396980418        1.7452597377        0.6371854581
 H          0.4109296724        1.5376821659        1.5781332605
 C          1.4150941941        3.1854113358        0.6655936212
 C          0.4878889698        4.2389933539        1.1885460728
 C          1.6930755706        3.8380746943        1.9843104844
 H          2.5209381936        4.5276233152        2.0531467901
 H          1.5419596094        3.2464761118        2.8761289226
 H         -0.4814598183        3.9187755394        1.5413593182
 H          0.4857749589        5.2065466050        0.7108626413
 H          2.0601578640        3.4438498424       -0.1630649679
 O          3.3437649702        1.8083804831       -1.1003514678
