  62
        -98.93823543
 C         -2.4924503495       -0.6943399111        0.0186176970
 C         -2.9023915236        0.4609673152        0.7330221160
 C         -4.0451266150        1.2007642778        0.1844871043
 C         -4.6183738041        0.7680969750       -0.9530815250
 C         -5.8216486311        1.3901725231       -1.5990935972
 C         -7.1195486689        0.7450004498       -1.0934416333
 C         -7.2058838675        0.6430805767        0.4294071136
 H         -8.1749162987        0.2013124378        0.6716057375
 H         -6.4394806702       -0.0498538166        0.7843012732
 C         -7.0561476114        1.9822306023        1.1647762745
 H         -7.2286110831        2.8066334277        0.4720120185
 H         -7.8233460940        2.0440216564        1.9395056605
 C         -5.7063920109        2.1774164588        1.8580163624
 H         -5.4861902852        1.3080651214        2.4828431702
 H         -5.7864693514        3.0436925885        2.5201849849
 C         -4.5085300197        2.4200021531        0.9309841640
 H         -4.7386592014        3.2314579926        0.2375497615
 H         -3.6635348462        2.7286046482        1.5534048705
 H         -7.9634624732        1.3262870629       -1.4694065477
 H         -7.1894874070       -0.2632000667       -1.5082908653
 H         -5.8283374568        2.4579752719       -1.3890917097
 H         -5.7485452238        1.2410737828       -2.6776181660
 O         -4.1862995259       -0.3271578821       -1.6243136448
 C         -3.1185204991       -1.0909843588       -1.1642052430
 O         -2.8519423340       -2.0618672061       -1.8941499126
 O         -2.3373408643        0.8493665609        1.7914695681
 C         -1.3264119783       -1.4699082834        0.6048915894
 C         -0.0151538651       -0.9844653909        0.0415598890
 C          0.1994254580       -0.9055115602       -1.3309458475
 C          1.4154153663       -0.4692478900       -1.8245898399
 C          2.4362831958       -0.0983462553       -0.9665014971
 C          2.2320156518       -0.1693920861        0.4045549979
 C          1.0109247470       -0.6128691907        0.8976414577
 H          0.8513383624       -0.6557132066        1.9668738196
 N          3.2575846219        0.2221751085        1.2796308018
 S          4.8020324151       -0.3900883864        1.0384761528
 O          4.7586497908       -1.6877559985        0.4061427711
 O          5.4375687004       -0.3261217529        2.3360905257
 C          5.5715374783        0.7951240807       -0.0441121733
 C          6.1148942585        0.3798774138       -1.2439982895
 C          6.7181575848        1.3183258169       -2.0668879018
 C          6.7676138099        2.6478387735       -1.6768266599
 C          6.2196746902        3.0480847476       -0.4670749260
 C          5.6163986605        2.1148520732        0.3606443001
 H          5.1835224476        2.3847316616        1.3094541770
 H          6.2605498078        4.0828584348       -0.1671720071
 H          7.2365323679        3.3764520764       -2.3191727791
 H          7.1454713326        1.0090122534       -3.0072184056
 H          6.0492961378       -0.6636548183       -1.5084230518
 H          3.0009486535        0.1875184916        2.2555557900
 H          3.3837314742        0.2437906786       -1.3493778999
 H          1.5699361027       -0.4152109333       -2.8916377021
 H         -0.5946890821       -1.1951293619       -2.0026239239
 H         -1.3354725005       -1.2128934407        1.6764751272
 C         -1.4921329531       -2.9800292453        0.5067385377
 C         -0.6667052020       -3.8568006411       -0.3809919619
 C         -0.4553254104       -3.8874945959        1.1011460182
 H         -0.7800383146       -4.7540648992        1.6569163632
 H          0.4465025293       -3.4307850796        1.4822858608
 H         -1.1607807504       -4.6902997558       -0.8561486316
 H          0.0941399794       -3.3987411855       -0.9927620222
 H         -2.5273853206       -3.2786894357        0.6381798705
