  62
        -98.94356751
 C         -1.2880541697       -0.8297384103        0.1859222687
 C         -1.7597807097        0.2893023992        0.9175495095
 C         -2.8280843299        1.0750260895        0.2874711302
 C         -3.2258462600        0.7587254002       -0.9579014800
 C         -4.3377878302        1.4378410206       -1.7025377094
 C         -5.6818020201        0.7398555003       -1.4500538896
 C         -5.9781088899        0.4857736393        0.0280134603
 H         -6.9628283098        0.0172620792        0.0862327802
 H         -5.2557137497       -0.2354653008        0.4170140697
 C         -5.9580068398        1.7454488488        0.9051404311
 H         -6.8267000697        1.7255832783        1.5665316012
 H         -6.0476143300        2.6339730792        0.2791207517
 C         -4.7221643597        1.8778655384        1.7971515910
 H         -4.5764070795        0.9526287880        2.3604557204
 H         -4.9090593097        2.6756563979        2.5208058915
 C         -3.4109154999        2.2142696589        1.0752611910
 H         -3.5539424501        3.0894750193        0.4376507415
 H         -2.6650945998        2.4647913685        1.8356438710
 H         -5.6743732801       -0.2217949594       -1.9684422602
 H         -6.4749771403        1.3526239205       -1.8822224191
 H         -4.1106777704        1.3983505813       -2.7693514994
 H         -4.3919623003        2.4798707104       -1.3926654387
 O         -2.6796762601       -0.2580171493       -1.6704820107
 C         -1.7012999599       -1.0798468395       -1.1233937714
 O         -1.2982120199       -1.9655321890       -1.8997248120
 O         -1.3046263295        0.6153964986        2.0471124896
 C         -0.2057806595       -1.6805672306        0.8241342080
 C          0.9632263103       -1.8313736699       -0.1165265623
 C          1.5598078504       -3.0434471696       -0.4365446331
 C          2.6474606303       -3.0807994390       -1.2924232533
 C          3.1783243601       -1.9193495886       -1.8226108427
 C          2.5866243600       -0.7007688288       -1.5089864518
 C          1.4873818301       -0.6695367095       -0.6683462216
 H          1.0130813401        0.2777174404       -0.4598502710
 N          3.0912400098        0.5073292015       -2.0145976211
 S          3.0587363098        1.8661573309       -1.0418825603
 O          1.7338837398        2.4347511008       -1.0108648797
 O          4.0952454597        2.7192579814       -1.5841500599
 C          3.5395005201        1.2803591300        0.5739826593
 C          4.8290494502        0.8056569600        0.7195892288
 C          5.2237206205        0.2954949793        1.9449651884
 C          4.3241129106        0.2632675185        2.9999362085
 C          3.0362762406        0.7498026485        2.8405865690
 C          2.6365651403        1.2646226792        1.6169660794
 H          1.6379475403        1.6442800292        1.4645603698
 H          2.3314980507        0.7267770779        3.6566889991
 H          4.6274849708       -0.1408017720        3.9527968782
 H          6.2265987305       -0.0785180707        2.0730636280
 H          5.5021496601        0.8558189106       -0.1207252013
 H          3.9533031197        0.4285550019       -2.5332942513
 H          4.0304244500       -1.9519527581       -2.4839468428
 H          3.0941359903       -4.0305271988       -1.5444387540
 H          1.1613432606       -3.9611480999       -0.0368121136
 H          0.1414860406       -1.0723202511        1.6775396483
 C         -0.6973282693       -2.9966026410        1.4082643973
 C         -2.1369764392       -3.1906706714        1.7777893374
 C         -1.5489247593       -3.9529667206        0.6303287068
 H         -1.3759276192       -5.0118178606        0.7565548561
 H         -1.8254656795       -3.6706598200       -0.3729950630
 H         -2.3668413690       -3.7219174420        2.6892858071
 H         -2.8233439893       -2.3858515113        1.5561713180
 H          0.0298231309       -3.4354467713        2.0843917269
