  62
        -98.94401876
 C          1.8110044751        1.4388635757        0.4859385053
 C          2.5829238396        0.8848521983       -0.5650494236
 C          3.4153642919       -0.2744653805       -0.2043753026
 C          3.3677631714       -0.7645642544        1.0470040627
 C          4.1261621702       -1.9665891871        1.5294389601
 C          3.3123470169       -3.2553650204        1.3478244269
 C          2.7075571833       -3.4123872967       -0.0471631378
 H          1.9672016846       -2.6253558912       -0.2054826860
 H          2.1795559511       -4.3682758510       -0.0638272449
 C          3.7297678814       -3.3729932551       -1.1913594837
 H          3.5059037991       -4.1806488187       -1.8913151925
 H          4.7323213927       -3.5526833101       -0.8013835151
 C          3.7244209075       -2.0713645189       -1.9948774264
 H          2.7045190713       -1.8365615625       -2.3091535938
 H          4.3185398803       -2.2273626464       -2.8992017134
 C          4.3007147917       -0.8444684193       -1.2772277651
 H          4.4176505110       -0.0510198419       -2.0210067576
 H          5.2868027600       -1.0835609608       -0.8734666690
 H          2.4999747371       -3.2569338243        2.0785574548
 H          3.9615740058       -4.1058201666        1.5640438429
 H          5.0647524143       -2.0383528663        0.9831204658
 H          4.3446511907       -1.8315060729        2.5902039456
 O          2.5749611377       -0.2376666423        2.0156406694
 C          1.7838232924        0.8675641263        1.7610452575
 O          1.1061239049        1.2465196153        2.7390055776
 H         -1.3085693626        1.9184325587        1.5533761156
 C         -1.4298976977        1.8329373975        0.4814107925
 C         -0.3738296372        2.1896562272       -0.3472873790
 C         -0.5239160058        2.0399363854       -1.7208690459
 C         -1.7114557909        1.5594334578       -2.2449104573
 C         -2.7665676195        1.2165717668       -1.4178833641
 C         -2.6189132058        1.3477032322       -0.0429408408
 N         -3.6762608850        0.9823606212        0.8099090005
 S         -4.4274732334       -0.4840179145        0.5202625257
 O         -5.3952072362       -0.3287547666       -0.5368523285
 O         -4.9544085186       -0.9021480141        1.7999588279
 C         -3.1261489332       -1.5827559166       -0.0120840522
 C         -3.1709845086       -2.1471254617       -1.2703850660
 C         -2.1354368296       -2.9764412597       -1.6703045534
 C         -1.0770252775       -3.2233994295       -0.8102384538
 C         -1.0480373951       -2.6509540180        0.4522930303
 C         -2.0802131213       -1.8211757336        0.8573383692
 H         -2.0823830740       -1.3639815587        1.8344693395
 H         -0.2235899729       -2.8410984067        1.1215417719
 H         -0.2684378992       -3.8650272568       -1.1230273673
 H         -2.1544498835       -3.4244898079       -2.6505903185
 H         -4.0119236596       -1.9272933709       -1.9076684977
 H         -3.4608951569        1.0902440674        1.7904000882
 H         -3.6997175001        0.8494369124       -1.8133488816
 H         -1.8174579368        1.4494080006       -3.3133185647
 H          0.3017884309        2.2763647958       -2.3721227343
 C          0.9143853986        2.6534759554        0.2885519124
 H          0.6741754371        3.0105919322        1.2991938174
 C          1.5846409493        3.7812358873       -0.4666587244
 C          0.9787403432        5.1499168038       -0.4045840403
 C          2.2692204260        4.8684453695        0.3033573142
 H          3.1805542829        5.2870128772       -0.0965937390
 H          2.2565123772        4.8050130577        1.3820562905
 H          0.0890949447        5.2757422294        0.1943982975
 H          1.0013935718        5.7647538278       -1.2910806721
 H          2.0440045528        3.4735795364       -1.3958376844
 O          2.5991355304        1.3232675214       -1.7436079149
