  62
        -98.93761476
 C          1.6926333637        1.3765973037        0.9000970762
 C          2.7947233489        0.8991657611        0.1540709076
 C          3.2051760978       -0.4978015673        0.4195586861
 C          2.5239515798       -1.2349914151        1.3112129961
 C          2.7283172702       -2.6832211062        1.6609802305
 C          1.8211457854       -3.5763994845        0.7964500405
 C          2.4382078655       -4.0210793908       -0.5278094703
 H          3.2528260307       -4.7231586950       -0.3340908066
 H          1.6627370454       -4.5546391557       -1.0826453082
 C          2.9613508886       -2.8778001891       -1.4004817117
 H          2.2402951778       -2.0575415730       -1.3797038861
 H          3.0092265371       -3.2352764268       -2.4314621116
 C          4.3532035331       -2.3838225534       -0.9783702899
 H          5.0082894660       -2.3648023290       -1.8521777201
 H          4.7876883603       -3.1015533908       -0.2822730835
 C          4.3973082346       -0.9772898853       -0.3641065539
 H          5.2855443790       -0.8955750060        0.2721884369
 H          4.5169276068       -0.2380302512       -1.1626050875
 H          0.8998356829       -3.0247850011        0.5893557994
 H          1.5542852942       -4.4687596701        1.3670383576
 H          2.4348973904       -2.7951712730        2.7070157553
 H          3.7724821916       -2.9640884700        1.5574469978
 O          1.4703260535       -0.7361290819        2.0124275027
 C          1.0196905032        0.5482447741        1.8032186234
 O          0.0203553353        0.8585015455        2.4855999496
 O          3.4292166021        1.5738371187       -0.6983337512
 C          1.0410242284        2.7456251604        0.7374883488
 C         -0.3430848082        2.5540138689        0.1658579066
 C         -1.4248331792        3.3151337208        0.5924674906
 C         -2.6901883067        3.0923815621        0.0779879585
 C         -2.9091035123        2.0770238008       -0.8361173417
 C         -1.8351370571        1.3036770608       -1.2587154941
 C         -0.5595238989        1.5720898964       -0.7893497537
 H          0.2632099705        0.9631693796       -1.1338024865
 N         -2.0031435481        0.1978170994       -2.1217582523
 S         -1.7299516845       -1.2910313390       -1.3881796484
 O         -0.3955568250       -1.3377574782       -0.8547735281
 O         -2.0575536489       -2.2775821027       -2.3949427527
 C         -2.9469790564       -1.3454133766       -0.0849374047
 C         -4.1654506382       -1.9414924304       -0.3509008624
 C         -5.1527055390       -1.9166491397        0.6200984928
 C         -4.9099725440       -1.2871409222        1.8321395535
 C         -3.6837971075       -0.6910588674        2.0816354037
 C         -2.6881316934       -0.7162071219        1.1162537873
 H         -1.7260736686       -0.2610833730        1.2961330380
 H         -3.4849493622       -0.1995562921        3.0205405807
 H         -5.6791696113       -1.2613540897        2.5877743292
 H         -6.1057995394       -2.3828233700        0.4288250677
 H         -4.3057905991       -2.4207304949       -1.3065546567
 H         -2.9056955604        0.1736655775       -2.5780493587
 H         -3.9018855508        1.8735100587       -1.2085511480
 H         -3.5201586095        3.6940588322        0.4150333129
 H         -1.2743218346        4.0695833010        1.3505405778
 H          0.9144128480        3.1510594821        1.7563170199
 C          1.8582541299        3.7550687292       -0.0509998847
 C          1.6359644532        4.0078852721       -1.5086559912
 C          1.2485488391        5.0487936520       -0.5036671036
 H          1.8461807465        5.9449535099       -0.4345386183
 H          0.1950967846        5.2030282613       -0.3282015761
 H          2.5052292309        4.1693051395       -2.1272692464
 H          0.8493342700        3.4570101587       -2.0023480619
 H          2.8859303558        3.7977868182        0.2898380247
