  62
        -98.93794781
 C         -1.8658403997       -1.1817733103        0.0215573092
 C         -2.6596669997       -0.5128700603        0.9814922591
 C         -3.3425172798        0.7060453596        0.5249925690
 C         -3.1369639898        1.1377002995       -0.7330057311
 C         -3.8180025099        2.3156329994       -1.3701575512
 C         -5.2595512699        1.9382700792       -1.7682366112
 C         -6.3444515599        2.6975797392       -1.0042320213
 H         -6.4098207800        3.7141633992       -1.3974681214
 H         -7.2958066699        2.2023746691       -1.2094434612
 C         -6.1494424199        2.7938340394        0.5119240987
 H         -7.1031979000        3.1154118394        0.9355264887
 H         -5.4272296700        3.5791984195        0.7401837686
 C         -5.7089743498        1.5034005895        1.2147945989
 H         -6.0017505098        0.6290638894        0.6333225690
 H         -6.2337819598        1.4410918896        2.1702239289
 C         -4.2027701698        1.4256672797        1.5273281889
 H         -3.8096118999        2.4339033697        1.6878214388
 H         -4.0681492798        0.8698024798        2.4602623389
 H         -5.4009276899        2.1201753991       -2.8345346812
 H         -5.3865179598        0.8649178192       -1.6129212311
 H         -3.8171026300        3.1574104894       -0.6809691013
 H         -3.2365257999        2.5877302093       -2.2513646213
 O         -2.3282436698        0.4932875994       -1.6131543010
 C         -1.6655466597       -0.6734147805       -1.2620539609
 O         -0.9526520597       -1.1513156105       -2.1635635908
 H          0.1498361703       -0.4552768600        1.5987342091
 C          0.8415871503       -1.0891322901        1.0560049991
 C          0.3518664304       -2.2003958302        0.3789574393
 C          1.2510205505       -3.0000406902       -0.3130384707
 C          2.5990343204       -2.6839412901       -0.3340034507
 C          3.0780548104       -1.5694437000        0.3299938692
 C          2.1866971203       -0.7658823700        1.0289283991
 N          2.6716527402        0.3934724501        1.6883122590
 S          2.9314768001        1.6869533300        0.6350636388
 O          3.0578883901        2.8527091901        1.4836087587
 O          1.9067908001        1.7515758099       -0.3848340012
 C          4.5071090802        1.3019969201       -0.0928559811
 C          4.5689558402        0.8881442999       -1.4087621211
 C          5.8036969302        0.5631001900       -1.9489355511
 C          6.9455567402        0.6563240601       -1.1675352411
 C          6.8656127302        1.0763863003        0.1521374789
 C          5.6349335802        1.4031781902        0.6986267489
 H          5.5235624301        1.7383368903        1.7162734088
 H          7.7560642702        1.1480492104        0.7555662689
 H          7.9038738802        0.3995188801       -1.5905582710
 H          5.8673010702        0.2356130899       -2.9741361710
 H          3.6525170602        0.8236940798       -1.9739986811
 H          2.0427053202        0.7100968702        2.4150321489
 H          4.1266176003       -1.3212137099        0.3186588992
 H          3.2855254205       -3.3136624401       -0.8786611706
 H          0.8944152405       -3.8662490803       -0.8453795506
 C         -1.1352018796       -2.4504140103        0.4267711693
 H         -1.4169674996       -2.6263627602        1.4757266693
 C         -1.5881982495       -3.6294194304       -0.4065306106
 C         -1.4760126494       -5.0209788203        0.1388041696
 C         -2.8213569994       -4.3757748104        0.0026696495
 H         -3.4893833194       -4.7282909105       -0.7686882505
 H         -3.3261104395       -4.0469901304        0.8994700495
 H         -1.0680846094       -5.1365145002        1.1314576996
 H         -1.2222217094       -5.8212887504       -0.5395038903
 H         -1.4249518395       -3.4772231405       -1.4672351606
 O         -2.7860785097       -0.9147505602        2.1715862291
