  62
        -98.94426772
 C         -1.3209411524       -1.4328023765        0.6349910715
 C         -2.1301114443       -1.0217365537       -0.4539946112
 C         -3.1167986292        0.0250752877       -0.1571393603
 C         -3.1914710743        0.5521046430        1.0771991272
 C         -4.1346113032        1.6348316437        1.5248068415
 C         -3.6352429958        3.0507452036        1.2052467153
 C         -3.7129843255        3.4522726276       -0.2683994488
 H         -4.7155474693        3.2512104841       -0.6483962176
 H         -3.5568041902        4.5320865162       -0.3124346991
 C         -2.6720835190        2.7718081241       -1.1691187818
 H         -1.8547682765        2.3784282068       -0.5583359133
 H         -2.2261066999        3.5164350115       -1.8335227416
 C         -3.2290296812        1.6556838910       -2.0540132250
 H         -2.3950630966        1.2085411350       -2.6013800286
 H         -3.9228644617        2.0813133946       -2.7831383339
 C         -3.9504624367        0.5363489735       -1.2926301667
 H         -4.9154505563        0.8891136218       -0.9293109658
 H         -4.1164728246       -0.2930635037       -1.9847824350
 H         -2.6014134743        3.1436585368        1.5479997586
 H         -4.2432448908        3.7505807659        1.7836889253
 H         -4.2292570199        1.5390788954        2.6087223592
 H         -5.1155333225        1.4813887291        1.0741873196
 O         -2.3891948871        0.1410679113        2.0944657843
 C         -1.4085655100       -0.8152712608        1.8844578956
 O         -0.6829961541       -1.0267583726        2.8785025259
 O         -2.0403820857       -1.4882883439       -1.6182933481
 C         -0.1772114927       -2.4155408378        0.4470237900
 C          0.6633093563       -1.9744935785       -0.7284459749
 C          1.1580980359       -2.8225950613       -1.7095442089
 C          1.9374404630       -2.3168391150       -2.7370112753
 C          2.2517496627       -0.9715130809       -2.8032834103
 C          1.7574894508       -0.1141080706       -1.8261060293
 C          0.9783257303       -0.6243623784       -0.8034554707
 H          0.5732276650        0.0523582895       -0.0676896184
 N          2.0262377847        1.2615191753       -1.8499115309
 S          2.1149618900        2.1276588164       -0.4258681092
 O          0.8039429295        2.3170150825        0.1430996421
 O          2.8215829413        3.3364774888       -0.7934804501
 C          3.1425657775        1.1404872516        0.6485354586
 C          2.6182447587        0.5259264527        1.7667915341
 C          3.4464447529       -0.2673913475        2.5459819381
 C          4.7777881164       -0.4302111881        2.1977798893
 C          5.2934724632        0.2022477177        1.0762279376
 C          4.4697848559        0.9925661930        0.2925397971
 H          4.8359169600        1.5094553039       -0.5795155293
 H          6.3309276032        0.0789787471        0.8106754293
 H          5.4157938739       -1.0511351348        2.8065487831
 H          3.0359789209       -0.7560686865        3.4155110056
 H          1.5775691949        0.6625831577        2.0188934451
 H          2.6996547488        1.5665523223       -2.5358571505
 H          2.8567756599       -0.5840035771       -3.6082654343
 H          2.3083331767       -2.9840534875       -3.5002307911
 H          0.9180646133       -3.8727958399       -1.6853358990
 H          0.4444257698       -2.2909363977        1.3503515332
 C         -0.5779187098       -3.8824575308        0.4040847114
 C         -1.9007162717       -4.3426754914        0.9386235770
 C         -1.6243294812       -4.4049150321       -0.5320821080
 H         -1.4695755130       -5.3750173506       -0.9817325480
 H         -2.1111107529       -3.6917577291       -1.1774972115
 H         -1.9345029796       -5.2646037006        1.4999727415
 H         -2.5852610977       -3.5870323336        1.2971264544
 H          0.2657017836       -4.5370649377        0.6004460946
