  62
        -98.94802607
 C         -1.2674971794       -1.0451714345        0.0047528832
 C         -1.6217554928        0.0524452016        0.8243210856
 C         -2.6623530102        0.9426818323        0.2958537353
 C         -3.1611409160        0.7121360338       -0.9323334010
 C         -4.2535307729        1.5137631790       -1.5777190922
 C         -5.6362714118        0.9240795086       -1.2657854118
 C         -5.8644139437        0.6351693672        0.2178664063
 H         -6.8815453832        0.2513729878        0.3215130801
 H         -5.1858381397       -0.1604428264        0.5334964443
 C         -5.6805469728        1.8512146096        1.1363998146
 H         -5.7288767609        2.7693696872        0.5498128363
 H         -6.5058034400        1.8787531873        1.8510017115
 C         -4.3860930710        1.8396600679        1.9514366108
 H         -4.4575985090        2.6192401963        2.7145071202
 H         -4.2883649574        0.8820589863        2.4689149099
 C         -3.0967505030        2.0930566000        1.1596832713
 H         -3.1997528385        3.0029769679        0.5641781392
 H         -2.2875388103        2.2493405803        1.8795003335
 H         -6.3964722865        1.6203500291       -1.6245566872
 H         -5.7446242661       -0.0121817447       -1.8181094585
 H         -4.1961529766        2.5428172038       -1.2274937428
 H         -4.0959690244        1.5002580756       -2.6576948617
 O         -2.7528012694       -0.3170892125       -1.7174721860
 C         -1.7973552884       -1.2203373240       -1.2731897366
 O         -1.5135147695       -2.1124701622       -2.0950493599
 O         -1.0883552932        0.2774940055        1.9450460126
 C         -0.2064859434       -2.0130275786        0.4924253273
 C          1.0245100603       -1.9369545141       -0.3781609438
 C          1.7956218906       -3.0434111823       -0.7123276799
 C          2.9321381590       -2.8941490231       -1.4885274634
 C          3.3405235582       -1.6459549710       -1.9226800303
 C          2.5788378527       -0.5321736078       -1.5882791195
 C          1.4304726233       -0.6891318097       -0.8300421617
 H          0.8317952375        0.1798949912       -0.6056474491
 N          2.9510088717        0.7577373460       -1.9958090810
 S          2.6820540667        2.0483873779       -0.9659050860
 O          1.2878329143        2.4156830085       -0.9685998059
 O          3.6005263700        3.0672150603       -1.4297496505
 C          3.1963747725        1.4620789139        0.6390376030
 C          2.2753333574        1.1921450553        1.6297585110
 C          2.7248319712        0.6844797144        2.8393402071
 C          4.0770752420        0.4573631035        3.0380472655
 C          4.9919399228        0.7429457951        2.0353787361
 C          4.5492761373        1.2469944509        0.8242483274
 H          5.2294728038        1.4921670561        0.0247998777
 H          6.0443739474        0.5711206796        2.1932917817
 H          4.4187912379        0.0581870795        3.9799768465
 H          2.0047276156        0.4652458622        3.6117261446
 H          1.2249469205        1.3678327193        1.4564216503
 H          3.8469721038        0.8202087001       -2.4561278357
 H          4.2307966487       -1.5323397023       -2.5217228117
 H          3.5154224988       -3.7633367353       -1.7516324269
 H          1.5021478368       -4.0231342684       -0.3728831856
 H          0.0759026118       -1.6530634857        1.4941962224
 C         -0.7712402098       -3.4125578033        0.6199317016
 C         -0.2602076573       -4.3430960327        1.6780080694
 C         -1.6257539877       -3.7404389092        1.8067090053
 H         -2.4886916473       -4.3730045798        1.6622885749
 H         -1.7750031994       -2.9608373593        2.5396749019
 H         -0.1871706194       -5.3951313314        1.4469508565
 H          0.5162598628       -3.9782022195        2.3330848689
 H         -1.0621782325       -3.8308775500       -0.3369144951
