  62
        -98.93792640
 C         -1.1092012610       -1.6232710162        0.4724772001
 C         -1.6887535120       -0.9265709885       -0.6131669335
 C         -2.7032810198        0.0947810203       -0.2739521075
 C         -2.9570159751        0.3603569568        1.0193645154
 C         -3.9457727574        1.3379220077        1.6016991120
 C         -5.3630178773        1.2824850129        1.0085618726
 C         -5.7248048905        2.5227880386        0.1910848348
 H         -6.8126209899        2.6166627998        0.1606485622
 H         -5.3367182479        3.4052763555        0.7040790533
 C         -5.2210872797        2.5108750128       -1.2508183349
 H         -5.7919310575        1.7779103261       -1.8250637453
 H         -5.4306307164        3.4933344073       -1.6804465574
 C         -3.7304989839        2.2087371362       -1.4262397064
 H         -3.4255364342        2.6322885992       -2.3858133382
 H         -3.1487110506        2.7105526823       -0.6547592531
 C         -3.3980466833        0.7098221276       -1.4589804173
 H         -2.7296960870        0.5008666369       -2.3003502996
 H         -4.3093032112        0.1358369784       -1.6552635055
 H         -5.4733558577        0.3856347267        0.4000423772
 H         -6.0709104498        1.2011981520        1.8349196559
 H         -3.5458000023        2.3504115011        1.5108447939
 H         -3.9795527811        1.1102055413        2.6694094067
 O         -2.2825259246       -0.2562408473        2.0337080140
 C         -1.3682647774       -1.2627552552        1.7943371384
 O         -0.8532738455       -1.7460449974        2.8245984822
 O         -1.3959941010       -1.1463844261       -1.8154852745
 C         -0.1203109287       -2.7571746822        0.2448908298
 C          1.1804250875       -2.1663395364       -0.2406768195
 C          1.6591566302       -2.2978610582       -1.5364488179
 C          2.8361970308       -1.6721445285       -1.9135147341
 C          3.5554968282       -0.9080208116       -1.0131180983
 C          3.0833652876       -0.7733456438        0.2866334326
 C          1.9072532448       -1.3995963085        0.6631146480
 H          1.5325017573       -1.2872853122        1.6730167579
 N          3.7926412510        0.0361793359        1.2010481356
 S          3.9715599528        1.6314719031        0.7126506261
 O          5.0890055188        1.7276326242       -0.1919746925
 O          4.0760942895        2.4050303019        1.9296622433
 C          2.4546367572        1.9971452592       -0.1515199969
 C          2.4629406682        2.1762689899       -1.5192770353
 C          1.2586718749        2.3740894104       -2.1754011273
 C          0.0734294935        2.3812519986       -1.4578580661
 C          0.0826262235        2.2021010470       -0.0835042261
 C          1.2823581570        2.0043493690        0.5779959844
 H          1.3194633042        1.8602347276        1.6468564866
 H         -0.8412313444        2.1963190241        0.4734398173
 H         -0.8654327027        2.5202571422       -1.9686725319
 H          1.2455455541        2.5116421902       -3.2444327797
 H          3.4063544688        2.1563615185       -2.0398103558
 H          3.4034410507        0.0059943659        2.1331105165
 H          4.4673286868       -0.4054354286       -1.2926727283
 H          3.1959037361       -1.7785745876       -2.9253524019
 H          1.1028854931       -2.8758572728       -2.2550849166
 H          0.0639060771       -3.1936239501        1.2367017024
 C         -0.6897551319       -3.8292716678       -0.6579557458
 C         -0.0649132394       -5.1909524922       -0.6642979030
 C         -1.4143303073       -4.9882467038       -0.0449714908
 H         -2.2810555071       -5.3819865021       -0.5543392420
 H         -1.4926447228       -5.0171925521        1.0324192171
 H         -0.0046858017       -5.7275280368       -1.5987100779
 H          0.7749788793       -5.3575542623       -0.0066632169
 H         -1.0763314550       -3.4410270453       -1.5915072887
