  62
        -98.94544905
 C         -2.4729495391       -1.2116915913        0.0091672093
 C         -3.1827990394       -0.4447026617        0.9632893093
 C         -3.9026855700        0.7216157280        0.4407105594
 C         -3.8582611601        0.9982772081       -0.8755036705
 C         -4.5623958606        2.1360827679       -1.5639370105
 C         -3.7949876512        3.4644870682       -1.5180007904
 C         -3.7708568715        4.1540316481       -0.1533248203
 H         -3.3903132119        5.1649663483       -0.3118479103
 H         -4.7894806415        4.2441099577        0.2252386797
 C         -2.8910800811        3.4553214384        0.8929789196
 H         -2.2069173408        2.7660724188        0.3905714396
 H         -2.2730699515        4.1976821987        1.4037346397
 C         -3.6689179608        2.6940018980        1.9670376696
 H         -2.9496941706        2.2121529483        2.6345950495
 H         -4.2569351911        3.3983101977        2.5593739496
 C         -4.6082752203        1.6108209277        1.4199554995
 H         -5.4818573505        2.0694086473        0.9577677995
 H         -4.9379234901        0.9893762975        2.2560784795
 H         -2.7704496011        3.2888910987       -1.8557924904
 H         -4.2689265815        4.1398690181       -2.2339531103
 H         -5.5528618706        2.2714846974       -1.1286849604
 H         -4.6778354305        1.8421218479       -2.6093240305
 O         -3.1597046298        0.2388823685       -1.7606739606
 C         -2.4287487093       -0.8646383812       -1.3413959007
 O         -1.8054026290       -1.4414014809       -2.2519625107
 O         -3.2101030193       -0.7195434118        2.1936807793
 C         -1.6850494886       -2.4216135710        0.4795924492
 C         -0.2138917887       -2.1929993703        0.2323138492
 C          0.6053689817       -3.0920128199       -0.4363000509
 C          1.9416505616       -2.7972188093       -0.6475076209
 C          2.4901980811       -1.6128767091       -0.1920674808
 C          1.6810653807       -0.7086065895        0.4842920793
 C          0.3443703808       -1.0065324101        0.6939875693
 H         -0.2868927295       -0.2985937304        1.2181005793
 N          2.2324324402        0.4932124807        0.9666421594
 S          3.0764816897        1.4548932611       -0.1230647806
 O          3.0079769291        2.7923242911        0.4255092295
 O          2.5864677198        1.2883114510       -1.4721385406
 C          4.7506389600        0.8620275418        0.0029297894
 C          5.4280316101        0.4644629622       -1.1330215307
 C          6.7326783403        0.0116104428       -1.0107690807
 C          7.3331137004       -0.0344509670        0.2380708893
 C          6.6396775802        0.3712309226        1.3687964993
 C          5.3358555200        0.8260038720        1.2535985993
 H          4.7630113499        1.1521349617        2.1054776394
 H          7.1097645402        0.3334723927        2.3382132993
 H          8.3474837305       -0.3890277066        0.3305879392
 H          7.2729469705       -0.3040049669       -1.8887968707
 H          4.9169388001        0.5106609321       -2.0815889907
 H          1.5747014699        1.0542286204        1.4893029194
 H          3.5286424410       -1.3789602287       -0.3601137108
 H          2.5651801619       -3.5016254990       -1.1765021109
 H          0.1959935721       -4.0182775301       -0.8038192309
 H         -1.8442427686       -2.4665323211        1.5674350792
 C         -2.2225103280       -3.6911956312       -0.1443127909
 C         -2.0588673875       -5.0031171912        0.5615889190
 C         -3.4091072577       -4.3586887718        0.4814054291
 H         -4.1545029076       -4.7959199020       -0.1657289909
 H         -3.8174827979       -3.9090776720        1.3747870091
 H         -1.8788316271       -5.8879611810       -0.0298482610
 H         -1.5509202875       -4.9972628210        1.5139737790
 H         -2.1695105381       -3.6785779611       -1.2269986909
