  62
        -98.94020791
 C         -1.8942367314       -1.3942999051        0.2178449851
 C         -1.7114384935       -0.0147751190       -0.0220544359
 C         -2.8762295020        0.8611408542        0.2164139970
 C         -4.0283664962        0.3058993519        0.6362874509
 C         -5.3448170077        0.9899927342        0.8883420299
 C         -6.0913942220        1.3290409869       -0.4139304220
 C         -5.2153453104        1.8739046343       -1.5398968440
 H         -5.8329533547        1.9372401352       -2.4398584560
 H         -4.4148117036        1.1614579823       -1.7486280271
 C         -4.6143181924        3.2550029627       -1.2896381014
 H         -5.4232339403        3.9788797176       -1.1661913400
 H         -4.0538073011        3.5333014246       -2.1858932664
 C         -3.6790246482        3.3690501910       -0.0853719269
 H         -4.2436605962        3.3746144036        0.8429748548
 H         -3.1810678288        4.3409194847       -0.1523509855
 C         -2.5724723891        2.3197065681       -0.0284361496
 H         -1.8627869791        2.6089785908        0.7566851211
 H         -2.0021287047        2.3506158878       -0.9637323117
 H         -6.8808143838        2.0463918657       -0.1840034392
 H         -6.5635567484        0.4132839436       -0.7778566327
 H         -5.9560855890        0.2947931211        1.4677927071
 H         -5.1909525767        1.8787034073        1.4932874273
 O         -4.1587918165       -1.0348143509        0.8506506577
 C         -3.1104182812       -1.9126175346        0.6595912528
 O         -3.3755383966       -3.1045578983        0.9169054315
 H          1.8762798746       -1.8817017526       -0.7900984386
 C          1.7059308825       -1.7353240455        0.2628112159
 C          0.4496356994       -1.9286909585        0.8139747421
 C          0.2830450597       -1.7275930098        2.1827303558
 C          1.3426277497       -1.3293503944        2.9734783479
 C          2.5908960997       -1.1136199072        2.4147035960
 C          2.7701011989       -1.3175981309        1.0526511702
 N          4.0341637532       -1.1356177024        0.4618521097
 S          4.2219636711       -0.1202259355       -0.8561110652
 O          3.4036861074       -0.5743166226       -1.9495765037
 O          5.6493828337       -0.0975635633       -1.0932184053
 C          3.6970663198        1.4863830144       -0.2839848546
 C          4.6675609333        2.3990321451        0.0845368712
 C          4.2788790472        3.6354262316        0.5727408282
 C          2.9298853246        3.9350825122        0.6919597901
 C          1.9704587865        3.0057217419        0.3227687395
 C          2.3501825517        1.7663045479       -0.1702125270
 H          1.6089198087        1.0380133628       -0.4587114154
 H          0.9185136360        3.2263225174        0.4114915198
 H          2.6243043762        4.8969826675        1.0729467290
 H          5.0253634708        4.3589639261        0.8587152371
 H          5.7036770335        2.1240930217       -0.0306025795
 H          4.7704855084       -0.9498050059        1.1286155607
 H          3.4195075976       -0.7952705160        3.0290990516
 H          1.1961542850       -1.1780476589        4.0323319587
 H         -0.6955547146       -1.8871221728        2.6158894262
 C         -0.7435578097       -2.3592219108       -0.0036471342
 H         -1.0861943307       -3.3331341007        0.3758835175
 C         -0.4499963891       -2.4923933222       -1.4832916040
 C          0.1564242004       -3.7531497782       -2.0190848004
 C         -1.2781670510       -3.4295667956       -2.3074958067
 H         -1.5501792843       -3.1331697616       -3.3095558222
 H         -2.0443353761       -3.9940988313       -1.7956813260
 H          0.3657443684       -4.5451903354       -1.3158843713
 H          0.8740113865       -3.6765077437       -2.8223182178
 H         -0.1558071650       -1.5543727423       -1.9413306849
 O         -0.6239608758        0.4764672069       -0.4227507114
