  62
        -98.94791986
 C         -0.9234567002       -1.0850004298        0.7048772096
 C         -1.4404567204       -0.9090324891       -0.6015266102
 C         -2.1695775398        0.3442414714       -0.8317861396
 C         -2.2762458091        1.2490106811        0.1576378507
 C         -2.9572295884        2.5883513115        0.0639666513
 C         -4.4768866484        2.5349955022        0.2729383317
 C         -5.2729485990        1.9282825230       -0.8829810983
 H         -6.3254275688        2.1540554535       -0.7003730679
 H         -4.9911332390        2.4205413632       -1.8143869082
 C         -5.1133576599        0.4089877030       -1.0334668588
 H         -4.7005636698       -0.0073551675       -0.1118884391
 H         -6.0946289001       -0.0475093764       -1.1808621387
 C         -4.2329400704       -0.0228553271       -2.2064952892
 H         -4.1570389810       -1.1130977771       -2.1965612496
 H         -4.7024395405        0.2732906035       -3.1472811390
 C         -2.8098002401        0.5495088222       -2.1704256194
 H         -2.2011403106        0.0215780921       -2.9092817397
 H         -2.8207279396        1.6086657722       -2.4294346590
 H         -4.6832683484        1.9773710920        1.1891720916
 H         -4.8206497078        3.5610890024        0.4224307621
 H         -2.5257260379        3.2139943510        0.8483688814
 H         -2.7354578984        3.0436514817       -0.9023021286
 O         -1.7390956189        1.0540563404        1.3918872505
 C         -1.0491575894       -0.1100062401        1.6928129699
 O         -0.5977489991       -0.1535011407        2.8552264498
 O         -1.3043777811       -1.7529671189       -1.5253171906
 C         -0.1242627208       -2.3309408803        1.0404102989
 C          1.0857409390       -2.4097024207        0.1401944986
 C          1.5379242182       -3.5882958607       -0.4388144619
 C          2.6481169480       -3.5787263811       -1.2658802922
 C          3.3183771685       -2.4013601213       -1.5430290120
 C          2.8802049493       -1.2184842413       -0.9586150215
 C          1.7888879295       -1.2377372910       -0.1072097212
 H          1.4553421101       -0.3162582210        0.3479113492
 N          3.5339742099        0.0009188285       -1.1949616613
 S          2.6239209806        1.3980641990       -1.3489846706
 O          1.3504218103        1.1507574299       -1.9832714203
 O          3.5046677609        2.3191391187       -2.0389877905
 C          2.3873892013        1.9765180886        0.3169030597
 C          3.4534994516        1.9599466977        1.1939516294
 C          3.2641920522        2.4349050574        2.4817051296
 C          2.0230147325        2.9188691679        2.8665108201
 C          0.9652446323        2.9357428188        1.9713677504
 C          1.1481471217        2.4620951691        0.6825434502
 H          0.3480146915        2.4386616798       -0.0421199596
 H         -0.0039161874        3.2981624892        2.2746697008
 H          1.8741415930        3.2808572477        3.8714654003
 H          4.0823920823        2.4225636167        3.1836709294
 H          4.4017026313        1.5726591273        0.8603760490
 H          4.2796747097       -0.0378116817       -1.8748851115
 H          4.1691888983       -2.3928336315       -2.2071955522
 H          2.9870116473       -4.5001965511       -1.7146337526
 H          1.0159180677       -4.5123802805       -0.2516751521
 H          0.2279376696       -2.1981879609        2.0743069389
 C         -1.0041112714       -3.5621678099        0.9774225788
 C         -0.7251591418       -4.7389683203        1.8622848283
 C         -1.9096758413       -3.8622367398        2.1327803489
 H         -2.8973145516       -4.2472655292        1.9278044290
 H         -1.8693862607       -3.1920516501        2.9793317791
 H         -0.9026218125       -5.7302886101        1.4731576980
 H          0.1168584784       -4.6713513910        2.5343537181
 H         -1.3863688518       -3.7475526893       -0.0198498612
