  62
        -98.94903465
 C          0.8906068324        1.3498174783        0.2385726565
 C          1.4362585604        0.2650319085        0.9623308690
 C          2.2712910059       -0.6659247077        0.1921771176
 C          2.4091131105       -0.4806259829       -1.1335202409
 C          3.2395683324       -1.3466488427       -2.0359754165
 C          4.6700241248       -0.8063270286       -2.1690640634
 C          5.3317963958       -0.4841866985       -0.8292050818
 H          6.3470085150       -0.1425235055       -1.0418337480
 H          4.8020408262        0.3500315357       -0.3636391738
 C          5.3828270756       -1.6636148674        0.1518927933
 H          5.2294530142       -2.5995103214       -0.3865378211
 H          6.3791390420       -1.7050225599        0.5969238632
 C          4.3831704146       -1.5716877970        1.3060831130
 H          4.4682776230       -0.5932780863        1.7851990166
 H          4.6544020638       -2.3257494167        2.0496303647
 C          2.9108403007       -1.8019010129        0.9408788820
 H          2.8107524228       -2.7376183333        0.3859441139
 H          2.3505564909       -1.8884971784        1.8762772851
 H          5.2688137046       -1.5439813421       -2.7065761174
 H          4.6398228775        0.1076832415       -2.7667111369
 H          3.2578901650       -2.3610714798       -1.6413457939
 H          2.7680564503       -1.3612925161       -3.0205728374
 O          1.8397707564        0.5533317433       -1.8025130342
 C          1.0673683113        1.4928246666       -1.1382887638
 O          0.6135738703        2.3954224534       -1.8679118880
 O          1.2292751045        0.0794013014        2.1923926079
 C         -0.0047783305        2.3404247061        0.9619285714
 C         -1.3770818711        2.3070735054        0.3359610052
 C         -2.1038138494        3.4408325715       -0.0011513734
 C         -3.3321919625        3.3204934030       -0.6287401994
 C         -3.8490304168        2.0785652806       -0.9477618359
 C         -3.1361464495        0.9369991272       -0.5973374372
 C         -1.9297265788        1.0605927733        0.0688715119
 H         -1.3805490566        0.1711788636        0.3416086373
 N         -3.6237652741       -0.3445512801       -0.8908579793
 S         -2.5566049889       -1.5899136740       -1.2237379275
 O         -1.3673965543       -1.1352229074       -1.9063328364
 O         -3.3620024900       -2.5606426544       -1.9375340126
 C         -2.1540258705       -2.2589697858        0.3753461062
 C         -3.1775975029       -2.4614097383        1.2801914584
 C         -2.8791609772       -3.0159297120        2.5140178529
 C         -1.5716863396       -3.3650306499        2.8167518731
 C         -0.5572398477       -3.1621316404        1.8946563796
 C         -0.8479762510       -2.6013707197        0.6611890461
 H         -0.0836549977       -2.4066908156       -0.0762556724
 H          0.4597301052       -3.4302859804        2.1309403784
 H         -1.3387238964       -3.7962432182        3.7775148480
 H         -3.6647912043       -3.1738071450        3.2352141532
 H         -4.1806372710       -2.1803254577        1.0062553841
 H         -4.4402894602       -0.3704275324       -1.4838547365
 H         -4.7902365816        1.9886835847       -1.4682886886
 H         -3.8851539402        4.2089912785       -0.8936177193
 H         -1.7028455223        4.4184035084        0.2106544492
 H         -0.0828786353        1.9667519813        1.9939667804
 C          0.6206504517        3.7187045734        0.9853206917
 C          0.3183929423        4.6671952262        2.1059577241
 C          1.6670871894        4.0211873797        2.0143877768
 H          2.5134536881        4.6265685170        1.7264602019
 H          1.9095803294        3.2381783333        2.7179271642
 H          0.2406811830        5.7205356281        1.8827401171
 H         -0.3531971683        4.3280763722        2.8798732257
 H          0.7635734858        4.1257934793       -0.0095499677
