  62
        -98.93192175
 C         -2.0416987959       -0.5790467620       -0.9175696320
 C         -2.8729784218        0.5680273713       -0.8967482360
 C         -4.2762262610        0.3363757847       -0.5134231840
 C         -4.6976940188       -0.9045987514       -0.2159953549
 C         -6.0994144863       -1.3209315611        0.1444094939
 C         -6.6590206477       -0.7622905254        1.4670327035
 C         -7.4773754935        0.5258368457        1.3138253225
 H         -7.8692117237        0.5736017353        0.2970393968
 H         -8.3411541127        0.4737256990        1.9798133246
 C         -6.7395370920        1.8280820464        1.6395196231
 H         -7.3371492471        2.6562417830        1.2525074820
 H         -6.6820563349        1.9433672328        2.7243144557
 C         -5.3175295653        1.9444071265        1.0906923184
 H         -4.6429855234        1.3241138548        1.6857897658
 H         -4.9847801503        2.9759239871        1.2219224178
 C         -5.1646200109        1.5402410447       -0.3885935549
 H         -6.1374734832        1.3466317824       -0.8376738457
 H         -4.6805541376        2.3445346908       -0.9460597878
 H         -7.3110898373       -1.5318764644        1.8832955237
 H         -5.8427006470       -0.6151053337        2.1737265678
 H         -6.7677152101       -1.0476520393       -0.6754452941
 H         -6.0713586449       -2.4110366623        0.2018989509
 O         -3.8658811390       -1.9826374699       -0.2512856328
 C         -2.5312234246       -1.8455577041       -0.5869131582
 O         -1.8878813481       -2.9151268770       -0.5668311222
 O         -2.4887499331        1.7301168805       -1.1827968884
 C         -0.5699100612       -0.5316419885       -1.2912621413
 C          0.2900750455       -0.2221137663       -0.0918676566
 C         -0.0116109632        0.8342534545        0.7633236615
 C          0.7882366490        1.1010801305        1.8589122174
 C          1.9154863849        0.3375680870        2.1101648829
 C          2.2303804744       -0.7129106178        1.2578510511
 C          1.4122776219       -0.9937424573        0.1714857666
 H          1.6664977436       -1.8223361485       -0.4718780517
 N          3.3818321669       -1.5006004844        1.4665697193
 S          4.5681755447       -1.4368851861        0.2850075630
 O          4.0262376147       -1.8854328751       -0.9706119850
 O          5.6816666536       -2.1873731995        0.8189135348
 C          4.9939704233        0.2936328277        0.1913745998
 C          4.2022052871        1.1356936926       -0.5638134207
 C          4.4880565284        2.4917429171       -0.5757363996
 C          5.5540437935        2.9796836370        0.1646328760
 C          6.3410522301        2.1206982086        0.9170848062
 C          6.0570846435        0.7646217410        0.9369983894
 H          6.6444490704        0.0600613145        1.5035578238
 H          7.1715467204        2.5029097422        1.4885574049
 H          5.7725736426        4.0358092089        0.1530087366
 H          3.8747395164        3.1577185258       -1.1614862288
 H          3.3850684602        0.7221324157       -1.1314187972
 H          3.8073251236       -1.3622383654        2.3730562180
 H          2.5443715787        0.5499057347        2.9617300129
 H          0.5384609975        1.9189704758        2.5173637819
 H         -0.8739869792        1.4476153182        0.5526063250
 H         -0.3222634390       -1.5557920730       -1.6132908459
 C         -0.2826473900        0.3956738761       -2.4669767008
 C          0.5901967187        1.6067892069       -2.3590516046
 C          1.0831411344        0.3948411369       -3.0879186798
 H          1.1615453140        0.4320005536       -4.1641232696
 H          1.8410659569       -0.2174752276       -2.6190163602
 H          0.3086918200        2.4761532229       -2.9331811891
 H          1.0198098753        1.8406108701       -1.3974643062
 H         -1.1248685126        0.4666133227       -3.1464290217
