  62
        -98.93554017
 C          1.0966340488        1.3684256505        0.2283829977
 C          1.7110787471        0.3966798113        1.0537927040
 C          2.9286051814       -0.2527284652        0.5360040125
 C          3.3369185148        0.0352273989       -0.7123945557
 C          4.5374809178       -0.4874495114       -1.4601482386
 C          4.8025413998       -1.9980210923       -1.3660866764
 C          6.0377700192       -2.3484861571       -0.5343558736
 H          6.4057904355       -3.3265953705       -0.8520472654
 H          6.8207645407       -1.6190754569       -0.7521039750
 C          5.8092153337       -2.4092386999        0.9748182220
 H          5.2172918079       -3.2953714057        1.2144063933
 H          6.7846035108       -2.5307342704        1.4518039282
 C          5.1154960715       -1.1877890291        1.5810836256
 H          5.4946465243       -0.2710486431        1.1309070932
 H          5.3709611642       -1.1518456127        2.6422027827
 C          3.5839211260       -1.2315966403        1.4718080650
 H          3.1394647766       -1.0206285910        2.4496467563
 H          3.2548823063       -2.2412646382        1.2066761770
 H          4.9617106330       -2.3713119424       -2.3792237100
 H          3.9215145667       -2.5050276813       -0.9739232312
 H          4.3655127509       -0.2057329317       -2.5015644126
 H          5.4204523175        0.0651008612       -1.1289325450
 O          2.6688119890        0.9203524344       -1.5049803026
 C          1.5376466330        1.5968835675       -1.0748860161
 O          1.0406164384        2.3451923878       -1.9366133291
 O          1.2591828313        0.0802961442        2.1881062338
 C         -0.1581848575        2.0450916057        0.7482953726
 C         -1.2813089597        1.8808915105       -0.2449479694
 C         -2.0913740931        2.9151626114       -0.6934113576
 C         -3.1169523759        2.6590269989       -1.5879083800
 C         -3.3740098387        1.3746958479       -2.0311923145
 C         -2.5661920027        0.3326794813       -1.5891623982
 C         -1.5299509592        0.5962116210       -0.7104827930
 H         -0.8849489350       -0.2125071798       -0.4021448736
 N         -2.7858825952       -0.9893281120       -2.0043833840
 S         -2.4867264382       -2.2401119839       -0.9377616909
 O         -1.0706704297       -2.4960982692       -0.8411443236
 O         -3.2887198208       -3.3358931554       -1.4401200996
 C         -3.1426635697       -1.6767221460        0.6235868289
 C         -2.3058250093       -1.4059449254        1.6864583530
 C         -2.8541711902       -0.9190695620        2.8630118893
 C         -4.2213861070       -0.7133202213        2.9569491100
 C         -5.0511330589       -1.0003981173        1.8833977410
 C         -4.5086521746       -1.4841327798        0.7047485652
 H         -5.1220645570       -1.7271647883       -0.1475399755
 H         -6.1150074376       -0.8446801173        1.9607085405
 H         -4.6411222954       -0.3289340985        3.8730547410
 H         -2.2023903216       -0.6966817548        3.6930321734
 H         -1.2434172488       -1.5669605927        1.5862943491
 H         -3.6236556639       -1.1376828900       -2.5467715072
 H         -4.1785322345        1.1786328112       -2.7231016446
 H         -3.7318123032        3.4733576154       -1.9398166363
 H         -1.9079673094        3.9240705086       -0.3629319935
 H         -0.4274270083        1.4534035396        1.6405424116
 C          0.0359562323        3.4754931637        1.2273516344
 C          1.3890404031        3.9831585298        1.6249289641
 C          0.7189228796        4.5191329405        0.3971178505
 H          0.3334711661        5.5279770717        0.4256563431
 H          1.0948303075        4.2201830751       -0.5682033577
 H          1.4640294958        4.6200401099        2.4936518721
 H          2.2306934430        3.3176196286        1.4961351479
 H         -0.7959966646        3.8120677403        1.8382794806
