  62
        -98.94593909
 C         -1.5744617360       -1.5689808017       -0.3019279803
 C         -1.4301103180       -0.2019473163       -0.6425230046
 C         -2.6807319027        0.5641110248       -0.7471652189
 C         -3.8550490388       -0.0563139868       -0.5332676249
 C         -5.1937527185        0.6221437288       -0.5367089914
 C         -5.5679181121        1.1133084149        0.8692025809
 C         -4.4588819617        1.9020646636        1.5661619019
 H         -4.8474310787        2.2176207772        2.5369969628
 H         -3.6144870326        1.2363590697        1.7594867784
 C         -3.9670664247        3.1306767949        0.7882952888
 H         -4.7030232434        3.4080965992        0.0326938272
 H         -3.8813632514        3.9708288813        1.4806170647
 C         -2.5995183859        2.9570521198        0.1245546683
 H         -1.8774005570        2.5895718483        0.8578306763
 H         -2.2590172772        3.9405630045       -0.2087555950
 C         -2.5643268418        2.0222023781       -1.0903884186
 H         -3.3371304290        2.3141110943       -1.8041613719
 H         -1.5869611147        2.1352813558       -1.5678321904
 H         -6.4636461317        1.7323392596        0.7914160271
 H         -5.8089190078        0.2444032234        1.4861762598
 H         -5.1695352274        1.4596826271       -1.2310436136
 H         -5.9441446007       -0.0953333419       -0.8729204975
 O         -3.9529833084       -1.3770079676       -0.2305515406
 C         -2.8189898219       -2.1609174848       -0.0905561443
 O         -3.0473766493       -3.3477936409        0.2208138936
 H          2.2351121326       -1.3919317384       -0.2605931207
 C          1.7901415125       -1.3242544962        0.7170024581
 C          0.5198119816       -1.8217949500        0.9544290771
 C         -0.0083620916       -1.7234274106        2.2401518326
 C          0.7156327712       -1.1359455915        3.2586567028
 C          1.9773266661       -0.6212751836        3.0136384961
 C          2.5137264277       -0.7177307741        1.7356885337
 N          3.7950030301       -0.2203855768        1.4640800169
 S          4.1871159767        0.4225397424       -0.0236350510
 O          4.3353137298       -0.6289823531       -0.9991483887
 O          5.3840707629        1.1962043455        0.2404309117
 C          2.8772728119        1.5359521623       -0.4980230125
 C          2.4678365435        1.5582245745       -1.8139795998
 C          1.5137656370        2.4821182305       -2.2053481924
 C          0.9841735097        3.3610896402       -1.2757639010
 C          1.3978068269        3.3197276980        0.0457141514
 C          2.3578240325        2.4036741814        0.4406075651
 H          2.6992117941        2.3569827564        1.4622447049
 H          0.9719851773        3.9965461954        0.7695024632
 H          0.2389009996        4.0791205926       -1.5813912210
 H          1.1804299606        2.5056377834       -3.2309730374
 H          2.8962143999        0.8480133966       -2.5035924279
 H          4.2342022435        0.2831495304        2.2201176072
 H          2.5429134487       -0.1537450822        3.8052167262
 H          0.2934055353       -1.0690303904        4.2500817944
 H         -1.0008007241       -2.1128511641        2.4250202642
 C         -0.3365384956       -2.4320084270       -0.1277742060
 H         -0.6904379732       -3.4124430496        0.2212565809
 C          0.3828241491       -2.6127705982       -1.4469022030
 C          1.3154784872       -3.7700659040       -1.6348140800
 C         -0.0042512972       -3.7471109079       -2.3448825659
 H         -0.0144786444       -3.5801625795       -3.4115564692
 H         -0.7833945858       -4.4114192799       -1.9997699163
 H          1.4342297870       -4.4538222398       -0.8076880291
 H          2.2170333284       -3.6169966862       -2.2089697846
 H          0.6409045154       -1.6713840657       -1.9183728193
 O         -0.3203017797        0.3523198178       -0.8452396958
