  62
        -98.94526665
 C          2.6276220800        1.1165854961        0.3142362196
 C          2.6360371952        0.3573266199       -0.8811894380
 C          3.3259305140       -0.9392110043       -0.8105239012
 C          3.8912036367       -1.3249056529        0.3478416583
 C          4.5703550543       -2.6438714634        0.5745100541
 C          3.5803868363       -3.6941162628        1.0977126955
 C          2.2867468806       -3.7839247987        0.2871534061
 H          1.6789674410       -4.5775487622        0.7279233674
 H          1.7224472050       -2.8543427592        0.4004497967
 C          2.4923129690       -4.0681496293       -1.2073069325
 H          1.7776592382       -4.8331490600       -1.5180218140
 H          3.4926190482       -4.4698741405       -1.3737405418
 C          2.2725873470       -2.8591989691       -2.1188975322
 H          1.3064813518       -2.3991404000       -1.8909526475
 H          2.2258042062       -3.2169254245       -3.1510198385
 C          3.3550708912       -1.7735856035       -2.0597106994
 H          4.3384452352       -2.2272339678       -2.1990332700
 H          3.1733042729       -1.0806990114       -2.8864199983
 H          4.0764065969       -4.6662482265        1.0993537793
 H          3.3206565573       -3.4432689762        2.1288506928
 H          5.0156167532       -2.9822914650       -0.3587887382
 H          5.3598193194       -2.5020754223        1.3144163143
 O          3.8605981869       -0.5685850254        1.4753155271
 C          3.2139661207        0.6572006638        1.4925286799
 O          3.2257957652        1.2296978463        2.6019549599
 O          2.0974942768        0.7393541498       -1.9521463115
 C          1.9092205328        2.4544871296        0.3560500483
 C          0.4481135155        2.2405099396        0.0404131316
 C         -0.2492675764        2.9561604580       -0.9226888864
 C         -1.5814256727        2.6744429922       -1.1749038021
 C         -2.2461951750        1.6866299625       -0.4722978430
 C         -1.5598992536        0.9702978637        0.5001133965
 C         -0.2276887782        1.2554833333        0.7510321168
 H          0.3087689410        0.6927447395        1.5067287821
 N         -2.2294529494       -0.0298549917        1.2309710408
 S         -2.9937972269       -1.2440334515        0.3530232205
 O         -3.0396358479       -2.3823206485        1.2455011648
 O         -2.3585889105       -1.4552760266       -0.9269011492
 C         -4.6447175768       -0.6172996154        0.1270878480
 C         -5.3711988880       -0.2817837111        1.2529136097
 C         -6.6575212912        0.2091899616        1.0971380267
 C         -7.1936253780        0.3521618644       -0.1741611257
 C         -6.4529682925        0.0063414110       -1.2940560673
 C         -5.1646540344       -0.4839237120       -1.1452912536
 H         -4.5484040951       -0.7594385416       -1.9863827950
 H         -6.8715295762        0.1174056867       -2.2814197177
 H         -8.1947961109        0.7352948973       -0.2928919332
 H         -7.2365428155        0.4789939198        1.9655747994
 H         -4.9183071405       -0.4121188228        2.2215450811
 H         -1.6615091165       -0.4380524812        1.9600153772
 H         -3.2810295155        1.4608292742       -0.6714808962
 H         -2.1091679741        3.2321227330       -1.9334209059
 H          0.2527600336        3.7249776996       -1.4862867607
 H          1.9849604130        2.8077730334        1.3948957317
 C          2.5922185646        3.4554073380       -0.5508630700
 C          2.4929591412        4.9218845130       -0.2599242140
 C          3.7862336733        4.1991630353       -0.0355610197
 H          4.6078427328        4.3856980866       -0.7106023972
 H          4.0941243040        3.9991447211        0.9807054306
 H          2.4294676881        5.6093923133       -1.0896905256
 H          1.9240108210        5.2216355664        0.6070740476
 H          2.6107623739        3.1353501629       -1.5860157261
