  62
        -98.94073993
 C          2.0301155011        1.3245985609        0.3787149961
 C          2.5098309101        0.6308716509       -0.7601803472
 C          3.7330603628       -0.1634586959       -0.5577022703
 C          4.3040202593       -0.2077851440        0.6588222168
 C          5.5192740938       -1.0150431715        1.0103956020
 C          5.1311845385       -2.4114645483        1.5162216194
 C          4.1291782962       -3.1373815402        0.6181239282
 H          3.9527524157       -4.1221345457        1.0565501405
 H          3.1764524742       -2.6026105272        0.6387797064
 C          4.5844531209       -3.3006960426       -0.8388068736
 H          5.6635689629       -3.1582975817       -0.9076728536
 H          4.3712782666       -4.3226967339       -1.1592025078
 C          3.8859503078       -2.3685188436       -1.8307583435
 H          2.8025376276       -2.4392638767       -1.7015814109
 H          4.1163760610       -2.7149234885       -2.8417993519
 C          4.2852596725       -0.8895765767       -1.7519117744
 H          5.3728132904       -0.7993031450       -1.7902649497
 H          3.8662666164       -0.3876144512       -2.6289992024
 H          4.6888589118       -2.3096527401        2.5100355434
 H          6.0390949564       -3.0101690252        1.6086835337
 H          6.0641333272       -0.4917999946        1.7981061204
 H          6.1589289038       -1.0992887242        0.1340746850
 O          3.7973441642        0.4458055244        1.7356167473
 C          2.6439281827        1.2060903140        1.6280667419
 O          2.2646699919        1.7129030434        2.7032145339
 O          1.9597859847        0.6639212603       -1.8900091451
 C          0.7715492562        2.1746599244        0.3232585747
 C         -0.3189038663        1.4264749643       -0.4040281841
 C         -0.9435213148        1.8905876871       -1.5532234350
 C         -1.9281666572        1.1362733988       -2.1681474951
 C         -2.3169780374       -0.0846706193       -1.6499538005
 C         -1.7085145853       -0.5515455358       -0.4911087688
 C         -0.7261757597        0.2072241351        0.1255328101
 H         -0.2465071720       -0.1611059730        1.0249357132
 N         -2.1068473120       -1.7837491581        0.0531736785
 S         -3.7414556542       -2.1335052156        0.1077905488
 O         -3.8979662075       -3.0291592499        1.2328221439
 O         -4.1725140265       -2.6486258938       -1.1679761379
 C         -4.5511070728       -0.5762000875        0.4312750554
 C         -4.1999013839        0.1179495939        1.5721793881
 C         -4.8005475364        1.3404155927        1.8245578610
 C         -5.7391197429        1.8447944283        0.9371282707
 C         -6.0860192359        1.1328122797       -0.2002854812
 C         -5.4859931059       -0.0891735797       -0.4592319313
 H         -5.7226568408       -0.6738963972       -1.3332542696
 H         -6.8178991813        1.5260971622       -0.8871734565
 H         -6.2024291589        2.7983013197        1.1355489536
 H         -4.5315385657        1.8951905949        2.7091678715
 H         -3.4704213180       -0.3023147846        2.2461493125
 H         -1.6451768401       -2.0254162029        0.9169858664
 H         -3.0661476010       -0.6921112336       -2.1313665677
 H         -2.3945839361        1.5014819393       -3.0702441894
 H         -0.6385055053        2.8284670662       -1.9864436359
 H          0.4583820771        2.2811003960        1.3752019952
 C          0.9920955100        3.5851369025       -0.2025242768
 C          2.3124325721        4.2736462491       -0.0307361265
 C          1.8468431055        3.8762874296       -1.3977186421
 H          1.5299871928        4.6557754871       -2.0752734261
 H          2.3262179904        3.0428359014       -1.8855147052
 H          2.3143144843        5.3211835469        0.2308033599
 H          3.1161538980        3.7105064173        0.4215831759
 H          0.1103011037        4.2048676418       -0.0723597008
