  62
        -98.94578740
 C         -2.1955672524       -1.1656677482        0.1977598581
 C         -1.8645590277       -0.2453863835       -0.8267683324
 C         -2.6307542943        1.0110244442       -0.8278615783
 C         -3.5732802061        1.2114516233        0.1113649564
 C         -4.4013826646        2.4563288139        0.2447511990
 C         -3.7341964295        3.4750536512        1.1791758960
 C         -2.2633343643        3.7370716091        0.8551507370
 H         -1.9032389315        4.4923873012        1.5573132183
 H         -1.6893878273        2.8265319345        1.0446540447
 C         -2.0051474965        4.2092349183       -0.5826288265
 H         -2.9323107562        4.5779550695       -1.0227166590
 H         -1.3039080168        5.0460019610       -0.5547035156
 C         -1.3938636936        3.1466202250       -1.4975997109
 H         -0.5135978683        2.7173185281       -1.0131454739
 H         -1.0543906944        3.6423767532       -2.4108050410
 C         -2.3284412891        2.0040244787       -1.9154387191
 H         -3.2523340342        2.4184370288       -2.3239150250
 H         -1.8295755507        1.4355855856       -2.7058620468
 H         -3.7987750666        3.1010006835        2.2037965714
 H         -4.2921704850        4.4114969580        1.1248624892
 H         -5.3723508681        2.1793761448        0.6589467904
 H         -4.5497159646        2.8946661961       -0.7402354104
 O         -3.8522334897        0.3088462649        1.0867988457
 C         -3.1711960675       -0.8969283453        1.1566543072
 O         -3.5159568071       -1.6285530238        2.1075886481
 O         -0.9806228399       -0.4577773315       -1.6945032211
 C         -1.4881012309       -2.5063069333        0.2678885574
 C          0.0084143344       -2.3334202013        0.3680746024
 C          0.9080773126       -3.1745165674       -0.2753040239
 C          2.2723713083       -2.9859411031       -0.1350431057
 C          2.7706381669       -1.9538884770        0.6379637280
 C          1.8795034784       -1.1027990510        1.2796264100
 C          0.5137509010       -1.3046910979        1.1523972935
 H         -0.1753075491       -0.6419761999        1.6625864427
 N          2.3746440222       -0.0295199379        2.0390337996
 S          3.6296223840        0.8677665956        1.3863764041
 O          4.8871833476        0.2492822704        1.7282298628
 O          3.4370699121        2.2094103619        1.8930926562
 C          3.4083668303        0.8251492331       -0.3840522704
 C          2.1655936548        1.1224494867       -0.9056745502
 C          1.9796972952        1.0670450306       -2.2765235430
 C          3.0414618910        0.7284553306       -3.1011059814
 C          4.2880147201        0.4455118304       -2.5647531284
 C          4.4749221497        0.4875875381       -1.1924223498
 H          5.4217053644        0.2576525404       -0.7310785432
 H          5.1113393670        0.1834436753       -3.2095889280
 H          2.8916810059        0.6815092205       -4.1681504194
 H          1.0007846763        1.2599655089       -2.6843472718
 H          1.3517267528        1.3762926470       -0.2445055256
 H          1.6580435332        0.5703439166        2.4201518528
 H          3.8299417540       -1.7925153066        0.7574830454
 H          2.9580007190       -3.6494317601       -0.6390715756
 H          0.5400116799       -3.9796423558       -0.8893692826
 H         -1.8353715229       -2.9844086932        1.1962573410
 C         -1.9099832212       -3.3660650070       -0.9075138545
 C         -2.0235385427       -4.8529523175       -0.7612662156
 C         -3.2601984399       -4.0146527080       -0.8758096535
 H         -3.8342873712       -4.0589845493       -1.7891275880
 H         -3.8612081506       -3.8618009570        0.0093129829
 H         -1.7512026151       -5.4765015893       -1.5994994966
 H         -1.7923350058       -5.2815945742        0.2022996305
 H         -1.5686765622       -2.9673897022       -1.8558922979
