  62
        -98.94578742
 C         -1.5020954819       -1.3981297636       -0.7114036365
 C         -2.7653521590       -1.1384817470       -0.1174960101
 C         -3.4412240483        0.0946042755       -0.5282903666
 C         -2.8694244039        0.8889030495       -1.4507745542
 C         -3.4201934473        2.1911082391       -1.9640356690
 C         -3.0729221590        3.3894011250       -1.0697966289
 C         -3.8465407774        3.4591074114        0.2476206830
 H         -3.6782389375        4.4539906131        0.6647954928
 H         -4.9146293124        3.3645846187        0.0474979102
 C         -3.4200772437        2.4127359931        1.2872490185
 H         -2.4379500763        2.0121155506        1.0200402397
 H         -3.3077377691        2.8943424143        2.2617873845
 C         -4.4051416412        1.2563860275        1.4658652594
 H         -5.3456756304        1.6376016477        1.8702867612
 H         -3.9819662507        0.5586919651        2.1932815900
 C         -4.7058527803        0.4744036340        0.1804914036
 H         -5.2250543735       -0.4474829884        0.4539255500
 H         -5.3502617271        1.0595070655       -0.4751268811
 H         -3.2836713008        4.2973999423       -1.6400051398
 H         -2.0001323028        3.3678361234       -0.8588960319
 H         -4.5021409063        2.1179773595       -2.0775271433
 H         -2.9750490531        2.3541609633       -2.9478607834
 O         -1.6917292826        0.5768676664       -2.0449579870
 C         -0.9508368302       -0.5310515758       -1.6541559594
 O          0.1435597998       -0.6182344487       -2.2455539516
 O         -3.3014302582       -1.9085482033        0.7247249961
 C         -0.7530547087       -2.6042998143       -0.1672175989
 C          0.0005229689       -2.1706137208        1.0697192595
 C         -0.2142787223       -2.7838661007        2.2970057959
 C          0.4217649064       -2.3156494313        3.4336292145
 C          1.2583094687       -1.2172574420        3.3687092812
 C          1.4848413213       -0.5987865507        2.1418845054
 C          0.8828888794       -1.1010314907        0.9989463322
 H          1.0565176565       -0.6192270355        0.0516236213
 N          2.3234443987        0.5177302922        2.0589194754
 S          2.1637189528        1.7200916315        0.9018060637
 O          2.6436615576        2.9122228484        1.5727042868
 O          0.8245700914        1.7904890156        0.3693520947
 C          3.3680903659        1.2496659750       -0.3226376603
 C          2.9951569047        0.7122762442       -1.5366797506
 C          3.9868776229        0.3387319002       -2.4327453021
 C          5.3220911451        0.5082980450       -2.1044569984
 C          5.6801077761        1.0546059196       -0.8805006237
 C          4.6963303808        1.4280213397        0.0187777324
 H          4.9281518505        1.8674252327        0.9747400675
 H          6.7193440358        1.1882860278       -0.6266605992
 H          6.0863092411        0.2142192490       -2.8066432588
 H          3.7003629776       -0.0863561681       -3.3816105530
 H          1.9507710079        0.5783625905       -1.7756501169
 H          2.6323540986        0.8879364986        2.9450068352
 H          1.7281395733       -0.8304530680        4.2602219795
 H          0.2458563205       -2.7960603749        4.3842088546
 H         -0.9044218170       -3.6117389525        2.3623513711
 H         -1.5298744394       -3.3143404627        0.1493815564
 C          0.1610947736       -3.3011903445       -1.1514667971
 C          0.4946877290       -4.7456690219       -0.9322124762
 C         -0.4031288335       -4.3466986640       -2.0639290935
 H         -0.0255040831       -4.4038580423       -3.0734430213
 H         -1.4579070560       -4.5652031968       -1.9806521927
 H          1.4936591263       -5.0819953855       -1.1625937714
 H          0.0481407753       -5.2405791334       -0.0831797058
 H          0.9357688452       -2.6612623727       -1.5516519291
