  62
        -98.94532074
 C         -1.5443189768       -1.1080639360        0.2179122105
 C         -2.8757720710       -1.2307941917        0.6895090647
 C         -3.9282438254       -0.7633756359       -0.2180417779
 C         -3.5957596014       -0.2599024445       -1.4204310777
 C         -4.5539609298        0.2486238122       -2.4631137994
 C         -4.9897007504        1.7046890513       -2.2495163934
 C         -5.9586355806        1.9296180804       -1.0879733199
 H         -6.3479846852        2.9447369476       -1.1882669951
 H         -6.8028951642        1.2461185595       -1.1835619176
 C         -5.3266435947        1.7793859351        0.3029955132
 H         -4.2385939391        1.8366818942        0.2174683398
 H         -5.6401886876        2.6121141059        0.9367493011
 C         -5.6999128409        0.4890550994        1.0331714431
 H         -6.7717742190        0.4840388523        1.2430167508
 H         -5.1693669219        0.4716942671        1.9885082655
 C         -5.3449115999       -0.7942470063        0.2707644999
 H         -5.4417180245       -1.6388027399        0.9573145881
 H         -6.0321309025       -0.9393158839       -0.5623428039
 H         -5.4754306940        2.0380782749       -3.1695838961
 H         -4.0971774142        2.3184308442       -2.1045867835
 H         -5.4337161535       -0.3944913068       -2.4984795229
 H         -4.0346150506        0.1822138225       -3.4215549942
 O         -2.3079914451       -0.1723100010       -1.8443410084
 C         -1.2504874379       -0.5668908901       -1.0342997459
 O         -0.1317808280       -0.4029483059       -1.5555099646
 O         -3.1704055094       -1.7121333786        1.8161334919
 C         -0.4198593013       -1.5284659619        1.1515322133
 C          0.2219794782       -0.2762249668        1.6984412082
 C         -0.4597072954        0.4638169810        2.6621881263
 C          0.0793936483        1.6318769510        3.1646946813
 C          1.3017826723        2.0938052086        2.7062244194
 C          1.9861551384        1.3681050679        1.7399718077
 C          1.4505641770        0.1832424349        1.2524544961
 H          1.9931990194       -0.3705825576        0.5076789893
 N          3.2367465567        1.7959312010        1.2606267806
 S          3.4616388816        1.8940703189       -0.4048833451
 O          4.5804192741        2.8037985175       -0.5538879617
 O          2.2432810393        2.2805039854       -1.0759432432
 C          3.9919122292        0.2636799613       -0.8810739391
 C          3.1995494196       -0.5167886547       -1.6994012029
 C          3.6460100686       -1.7844796074       -2.0419270170
 C          4.8648154416       -2.2437748594       -1.5669651787
 C          5.6490477397       -1.4433012610       -0.7496036331
 C          5.2110910995       -0.1757075669       -0.4027625333
 H          5.7901860679        0.4824210189        0.2232869013
 H          6.5958821285       -1.8043287713       -0.3817235129
 H          5.2029090426       -3.2323876680       -1.8355181859
 H          3.0316269042       -2.4068681425       -2.6735414795
 H          2.2422432931       -0.1400390814       -2.0267247091
 H          3.5836347720        2.6334044679        1.7076131636
 H          1.7212616741        3.0112518351        3.0914957575
 H         -0.4573668205        2.1934714886        3.9146674443
 H         -1.4214670830        0.1098378954        3.0067925080
 H         -0.9181268698       -2.0408083362        1.9866680224
 C          0.5572858804       -2.4842563329        0.5024926747
 C          1.5331099250       -3.2311657167        1.3604946550
 C          0.3956236232       -3.9588594245        0.7110007207
 H          0.6091053498       -4.6208129008       -0.1145631132
 H         -0.4220588690       -4.2897402023        1.3345675611
 H          2.5314650917       -3.3908739574        0.9827496348
 H          1.4858188985       -3.0657486726        2.4261641074
 H          0.8918419884       -2.1578079820       -0.4739310301
