  62
        -98.93164087
 C         -2.1741003429        0.2488193785       -0.4798391184
 C         -2.9307115674       -0.8517318818       -0.0067709838
 C         -4.2593712534       -0.5637374894        0.5577244577
 C         -4.6891842819        0.7108960916        0.6066689077
 C         -5.9627766728        1.3127999819        1.1623478297
 C         -7.1706976849        0.4332802928        1.4745319631
 C         -7.8335088200       -0.2009218165        0.2524314312
 H         -8.6196422108       -0.8740730546        0.6013865164
 H         -8.3085298852        0.5888445058       -0.3350542751
 C         -6.8997853601       -0.9692902689       -0.6795650223
 H         -6.1741791450       -0.2824898646       -1.1203306049
 H         -7.5016804738       -1.3699958099       -1.4998780654
 C         -6.1515838893       -2.1374893077       -0.0397782426
 H         -5.6581294197       -2.6908461235       -0.8435426432
 H         -6.8636207756       -2.8113454216        0.4405854338
 C         -5.0706598428       -1.7523251915        0.9859195062
 H         -5.5000663681       -1.5891213402        1.9715853003
 H         -4.3699462173       -2.5883255631        1.0681425641
 H         -6.9047607942       -0.3289682854        2.2009380959
 H         -7.9112462142        1.0807738779        1.9519363429
 H         -5.6687506780        1.8340135239        2.0800818291
 H         -6.2596794636        2.0886995961        0.4497110145
 O         -3.9197636864        1.7414656029        0.1548704875
 C         -2.6603316747        1.5534290793       -0.3988221630
 O         -2.1136351325        2.6098884657       -0.7596426226
 O         -2.5082814996       -2.0397413971       -0.0555457033
 C         -0.8200367059       -0.0687628907       -1.0853151901
 C          0.2932149026        0.0346939772       -0.0766991774
 C          0.4477908434        1.1571540331        0.7312212352
 C          1.5192401053        1.2570792459        1.6007569668
 C          2.4650653943        0.2482114982        1.6708078157
 C          2.3096306254       -0.8810744784        0.8805424084
 C          1.2252932736       -0.9882128038        0.0231673993
 H          1.1158748575       -1.8737678523       -0.5887628450
 N          3.3260648872       -1.8787182485        0.9099633391
 S          4.4573903948       -1.5972259171       -0.3136326290
 O          3.8036116783       -1.4392471552       -1.5955624280
 O          5.4172082152       -2.6747162744       -0.2283597046
 C          5.1887414524       -0.0594619872        0.1906682681
 C          6.1683976822       -0.0750539716        1.1639517427
 C          6.7056507088        1.1294725904        1.5890021239
 C          6.2514703778        2.3199687601        1.0408449312
 C          5.2666814702        2.3174226232        0.0645500258
 C          4.7268022684        1.1163735238       -0.3670849008
 H          3.9599302865        1.0695001325       -1.1241068221
 H          4.9131339337        3.2434432503       -0.3596262135
 H          6.6679568447        3.2569882361        1.3754553262
 H          7.4728352102        1.1372486535        2.3464304479
 H          6.4901142282       -1.0244721855        1.5591146543
 H          2.9558791261       -2.8123260611        0.7841019511
 H          3.3117535334        0.3224571732        2.3334082825
 H          1.6259470224        2.1350276052        2.2189287432
 H         -0.2751811110        1.9556031377        0.6571277478
 H         -0.8920296275       -1.1272681444       -1.3840678498
 C         -0.5155152014        0.7280084753       -2.3477583864
 C          0.4752121209        1.8475070717       -2.4096631421
 C          0.7904065972        0.5374228069       -3.0632463304
 H          0.7829771802        0.4812015683       -4.1416115559
 H          1.5363106630       -0.0942291581       -2.6002634982
 H          0.2293426771        2.6955279435       -3.0301514336
 H          1.0059842654        2.1104531245       -1.5086124338
 H         -1.3973449514        0.8370855395       -2.9718725577
