  62
        -98.94463209
 C          1.6796457994        1.4541845000        0.0291008291
 C          1.6102221193        0.3194937298       -0.8162485507
 C          2.9006110293       -0.2864901001       -1.1810390910
 C          4.0418466394        0.2494567902       -0.7126997615
 C          5.4141887594       -0.3107726397       -0.9464039918
 C          5.8049892099       -1.2948209594        0.1653472783
 C          4.7361069801       -2.3461180395        0.4654712888
 H          5.1334211904       -3.0011633493        1.2439640488
 H          3.8539232902       -1.8535137795        0.8817947190
 C          4.3175210298       -3.1896949798       -0.7468162109
 H          4.2712875900       -4.2382259797       -0.4449900607
 H          5.0714916795       -3.1109933798       -1.5310467311
 C          2.9469079796       -2.8335142701       -1.3259504305
 H          2.1981346898       -2.8281889300       -0.5287460003
 H          2.6617626794       -3.6188215503       -2.0315844403
 C          2.8661313491       -1.4959700102       -2.0722984307
 H          3.6575395389       -1.4452558203       -2.8229980110
 H          1.9006653390       -1.4641250705       -2.5856731504
 H          6.7334882798       -1.7909274493       -0.1228193220
 H          5.9919445801       -0.7275138392        1.0800278481
 H          5.4388776591       -0.8096928199       -1.9130970117
 H          6.1269537792        0.5154640204       -0.9546762422
 O          4.0694161695        1.3481516303        0.0836426583
 C          2.8968703295        1.9629772903        0.4875649086
 O          3.0665227797        2.9439534104        1.2397728783
 H         -1.8913703704        0.6618046896        0.3080281904
 C         -1.4089230800        0.5425183499        1.2611163803
 C         -0.2417091000        1.2348679001        1.5371400398
 C          0.3604688204        1.0626788304        2.7817276396
 C         -0.1980817392        0.2208369405        3.7234251099
 C         -1.3578898692       -0.4801663597        3.4373110005
 C         -1.9609323596       -0.3233821000        2.1964059406
 N         -3.1473679996       -1.0051784302        1.8723758412
 S         -3.1859565200       -1.8936643805        0.4417483513
 O         -4.2951134498       -2.8079935106        0.6277164619
 O         -1.9068714500       -2.5056942104        0.1711853510
 C         -3.6290998305       -0.7111153208       -0.8110257487
 C         -4.8792374606       -0.1296375610       -0.7271685984
 C         -5.2504895410        0.7993349688       -1.6854094885
 C         -4.3704293314        1.1257325687       -2.7066828289
 C         -3.1210290414        0.5289124589       -2.7773398191
 C         -2.7407323809       -0.4013439009       -1.8217424791
 H         -1.7633044309       -0.8589505808       -1.8253140393
 H         -2.4326347717        0.7866424088       -3.5668670894
 H         -4.6573407318        1.8513024585       -3.4517394389
 H         -6.2202171911        1.2674570687       -1.6331142783
 H         -5.5324507503       -0.4174116209        0.0796780218
 H         -3.5192910693       -1.5611165501        2.6302352514
 H         -1.7907099488       -1.1459105696        4.1692153807
 H          0.2752269612        0.1016452608        4.6866830298
 H          1.2749440604        1.5991233306        2.9961916392
 C          0.4194662195        2.1447070600        0.5290875694
 H          0.7626655896        3.0413413501        1.0638056591
 C         -0.4899945809        2.5672668696       -0.6046858604
 C         -1.6028068009        3.5339213995       -0.3354510002
 C         -0.4093617713        3.9668465295       -1.1316080007
 H         -0.5252344716        4.1240178793       -2.1932714307
 H          0.3001558388        4.6362684697       -0.6670467611
 H         -1.7030509707        3.9095927497        0.6716002597
 H         -2.5415384011        3.3916510993       -0.8489977999
 H         -0.6705348910        1.7781722095       -1.3231638702
 O          0.5374394592       -0.1664967604       -1.2584089502
