  62
        -98.94740543
 C          2.5325670922       -0.2244075071       -0.0149457304
 C          2.2872018361       -1.2695495046        0.9056486158
 C          1.7070650668       -2.4942985207        0.3454314218
 C          1.4469259198       -2.5656621300       -0.9728589040
 C          0.8668482326       -3.7494146892       -1.6988643959
 C         -0.6649679619       -3.8187022132       -1.6365096898
 C         -1.2357831301       -4.2641956820       -0.2897349849
 H         -2.2877782263       -4.5080236958       -0.4503201042
 H         -0.7336067824       -5.1759184534        0.0364410176
 C         -1.1426140612       -3.1986264939        0.8105861393
 H         -2.0933757103       -3.1376798213        1.3465139511
 H         -0.9825414745       -2.2164533373        0.3589518486
 C         -0.0566412330       -3.4451467082        1.8581387132
 H         -0.0551613100       -2.5902688563        2.5400184855
 H         -0.3003590120       -4.3399817245        2.4364245016
 C          1.3589336914       -3.6059066327        1.2892560747
 H          2.0668978670       -3.5669811560        2.1213306680
 H          1.4556277916       -4.5709126737        0.7914010300
 H         -1.0667624304       -2.8340657279       -1.8889768582
 H         -0.9931890689       -4.5255928253       -2.4022700358
 H          1.2930099318       -4.6711808598       -1.3012849574
 H          1.1662565369       -3.6478536521       -2.7442320616
 O          1.7153471820       -1.5454295644       -1.8293195501
 C          2.2187042010       -0.3396156390       -1.3692763687
 O          2.3640943009        0.5264651246       -2.2543453817
 O          2.5460708962       -1.1833489207        2.1381283289
 C          3.0378184519        1.1135920312        0.4973583558
 C          1.9984899764        2.1634120486        0.1868397877
 C          2.2806717528        3.3922014456       -0.3940327557
 C          1.2527616001        4.2609349737       -0.7207570145
 C         -0.0675666271        3.9184553976       -0.4963016943
 C         -0.3577531183        2.6998110826        0.1086144738
 C          0.6745795702        1.8532758921        0.4715053255
 H          0.4396442742        0.9103463700        0.9445294643
 N         -1.6839736905        2.3112073002        0.3685707602
 S         -2.0307627164        0.6563079956        0.3420678513
 O         -1.7211518644        0.1110061705        1.6397677298
 O         -1.4082784193        0.0232815897       -0.7988074758
 C         -3.8003624583        0.7047615176        0.1279029888
 C         -4.3338551794        0.5582353353       -1.1383661703
 C         -5.7088920550        0.6287505351       -1.2993430941
 C         -6.5221401161        0.8470293571       -0.1973765370
 C         -5.9722036773        0.9910962363        1.0678628147
 C         -4.5984800090        0.9196001909        1.2357093093
 H         -4.1250030286        1.0141118657        2.1990180844
 H         -6.6076499205        1.1577137151        1.9225703913
 H         -7.5915421213        0.9026483430       -0.3255961831
 H         -6.1386374625        0.5127759430       -2.2812247153
 H         -3.6618769825        0.3824226029       -1.9634071022
 H         -2.3620720778        2.8483551333       -0.1543324523
 H         -0.8674949414        4.5825543001       -0.7862873192
 H          1.4836024980        5.2097067625       -1.1811155606
 H          3.3015859082        3.6620064744       -0.6093975422
 H          3.1103572637        1.0032940494        1.5900205197
 C          4.4095540260        1.4302393743       -0.0579557469
 C          5.3557336694        2.2972912143        0.7164507907
 C          5.6139667037        0.8262725362        0.5974962742
 H          6.4273274418        0.4917836900       -0.0285863854
 H          5.4445851417        0.2028848381        1.4633641651
 H          5.9973604030        2.9739484793        0.1726379568
 H          5.0188610437        2.6761144744        1.6694816898
 H          4.4109362862        1.5031017948       -1.1397163375
