  62
        -98.94062217
 C          2.0004088066        1.3029201723        0.3130898095
 C          1.7377039193        0.3204630654       -0.6682894299
 C          2.3678383109       -1.0016044744       -0.4701989469
 C          3.1125654219       -1.2076359817        0.6320828657
 C          3.8180274418       -2.4648026924        1.0702583703
 C          2.8561879015       -3.5300160710        1.6138881802
 C          1.6465591891       -3.8065788518        0.7257395204
 H          1.0261387389       -4.5470315082        1.2373261798
 H          1.0530191107       -2.8956550461        0.6306290215
 C          1.9791267587       -4.3464665242       -0.6636017562
 H          2.6124141500       -5.2302793052       -0.5624367840
 H          1.0397798563       -4.6634905306       -1.1210339532
 C          2.6568827415       -3.3604835242       -1.6208270670
 H          3.7299323435       -3.3136008215       -1.4521886812
 H          2.5225300877       -3.7465446041       -2.6350257762
 C          2.0706349320       -1.9527590506       -1.6035781287
 H          0.9790339154       -2.0079714647       -1.6788350080
 H          2.3947603274       -1.4280793603       -2.5098975545
 H          3.4193591046       -4.4530519031        1.7641240815
 H          2.4921259341       -3.1961425302        2.5890226959
 H          4.4127111831       -2.8680131541        0.2561921030
 H          4.5028823382       -2.1739562237        1.8702180233
 O          3.3028464228       -0.2364324511        1.5738965239
 C          2.7706682101        1.0305143392        1.4411440501
 O          3.0385987312        1.8088744053        2.3805366378
 O          1.0085250776        0.5274816215       -1.6723006914
 C          1.4287508237        2.6992295180        0.1554975632
 C         -0.0709610604        2.6425612660       -0.0029591077
 C         -0.7667942096        3.4132663924       -0.9249372928
 C         -2.1447138068        3.3182054863       -1.0213211248
 C         -2.8577368141        2.4611472929       -0.2039266807
 C         -2.1714057963        1.6864544287        0.7237826235
 C         -0.7924624097        1.7891103008        0.8228246632
 H         -0.2607710748        1.1881776218        1.5512006051
 N         -2.8801007464        0.8162753329        1.5749821063
 S         -3.9217749107       -0.3171270065        0.9207685552
 O         -4.9992345897        0.3661503569        0.2512333470
 O         -4.2936192915       -1.1656303080        2.0299595135
 C         -2.9710224214       -1.2552855302       -0.2608318303
 C         -2.7344172971       -0.7289535635       -1.5152584618
 C         -1.9862121465       -1.4660058418       -2.4187663365
 C         -1.4979064461       -2.7125628141       -2.0584458156
 C         -1.7420001306       -3.2258290702       -0.7935212895
 C         -2.4784156138       -2.4881724361        0.1183054757
 H         -2.6957454914       -2.8513340131        1.1100674287
 H         -1.3613882390       -4.1950888344       -0.5137117462
 H         -0.9286762262       -3.2887424200       -2.7715304176
 H         -1.7825209491       -1.0622408587       -3.3971353263
 H         -3.1379477215        0.2371905857       -1.7691050472
 H         -2.2959286157        0.3740591754        2.2699562921
 H         -3.9296889408        2.3709494524       -0.2745398587
 H         -2.6721729245        3.9218638309       -1.7443526012
 H         -0.2305243004        4.0865501465       -1.5730757948
 H          1.6537517912        3.2291877214        1.0931090423
 C          2.1269317485        3.4115001138       -0.9854794290
 C          2.3172411994        4.8973466068       -0.9516363975
 C          3.4898673510        3.9867009605       -0.7490561925
 H          4.2271027219        3.9087822092       -1.5340049543
 H          3.9009968966        3.8910184708        0.2457067450
 H          2.2533632662        5.4474796726       -1.8784197887
 H          1.9384692873        5.4320377172       -0.0936321950
 H          1.9430311024        2.9383542862       -1.9433194747
