  62
        -98.93876807
 C          2.5780567955       -1.3607746746       -0.1480703173
 C          2.5143052488       -0.3124657225        0.7988108384
 C          3.4995773675        0.7751591584        0.6449074047
 C          4.3923631692        0.7276026260       -0.3610511279
 C          5.5274786571        1.6580940610       -0.7345478896
 C          5.6160042057        3.0612980201       -0.1403567859
 C          4.5065914119        4.0149886644       -0.5830878642
 H          4.6093120258        4.9446641745       -0.0192852326
 H          4.6513406452        4.2494229473       -1.6406259543
 C          3.0812498833        3.4918017406       -0.4209813947
 H          2.9345716663        2.6166669644       -1.0577091689
 H          2.3961496181        4.2649793875       -0.7795995231
 C          2.6702060919        3.1383247732        1.0071245551
 H          1.5959288927        2.9295783014        0.9971018356
 H          2.8362443768        3.9969629883        1.6610193602
 C          3.3759260271        1.9140051198        1.6155628148
 H          4.3475705860        2.1801036676        2.0246596219
 H          2.7601021725        1.5484677596        2.4426422718
 H          5.6637438634        3.0096764109        0.9433230165
 H          6.5663638504        3.4825815173       -0.4791109344
 H          6.4475851432        1.1183848740       -0.4846443101
 H          5.5017773091        1.7332207010       -1.8261981226
 O          4.4200563986       -0.3119785677       -1.2457783196
 C          3.5170911596       -1.3552575583       -1.1807047862
 O          3.6528979477       -2.2074393560       -2.0807639916
 O          1.6871720369       -0.2755542975        1.7484845314
 C          1.5902781367       -2.5175466784       -0.1273424641
 C          0.2331184165       -1.9671688449       -0.4918769237
 C         -0.0865195914       -1.7824977556       -1.8342792353
 C         -1.2882705785       -1.2063723416       -2.2003875825
 C         -2.1901881799       -0.7885148392       -1.2366402351
 C         -1.8720442229       -0.9516744777        0.1041604402
 C         -0.6767868239       -1.5573183078        0.4695818628
 H         -0.4381425463       -1.6668155537        1.5153986520
 N         -2.7721586303       -0.5112871211        1.0907622649
 S         -3.3852009071        1.0463805342        0.9497192163
 O         -2.4864486134        1.9168290583        0.2274645397
 O         -3.7251225129        1.4446348102        2.2985916435
 C         -4.8901139971        0.8167113821        0.0238919076
 C         -5.8180035273       -0.0866606651        0.5042588302
 C         -6.9965689904       -0.2740038893       -0.1998696413
 C         -7.2278484440        0.4428975187       -1.3645287150
 C         -6.2884497568        1.3492227152       -1.8316123780
 C         -5.1069539535        1.5406697077       -1.1320095845
 H         -4.3453001473        2.2303806997       -1.4599494081
 H         -6.4697810928        1.9063191585       -2.7367822400
 H         -8.1455830991        0.2947165983       -1.9114326921
 H         -7.7295971684       -0.9776607385        0.1604146104
 H         -5.6011331147       -0.6205815332        1.4142403845
 H         -2.4377082305       -0.6706473098        2.0308076610
 H         -3.1225987922       -0.3246012241       -1.5141399455
 H         -1.5243428253       -1.0747253074       -3.2454963003
 H          0.6302235550       -2.0832702754       -2.5861708160
 H          1.9090826213       -3.1972402906       -0.9285171132
 C          1.6186028441       -3.2686608954        1.1870758739
 C          0.9788074999       -4.6210671857        1.2692306039
 C          2.4713159759       -4.4940674750        1.3093336640
 H          2.9806900455       -4.6745130382        2.2441264318
 H          3.0353346281       -4.7988706959        0.4398741558
 H          0.4614909259       -4.8936595466        2.1763406290
 H          0.5278322345       -5.0122219544        0.3698492332
 H          1.5580699819       -2.6236166778        2.0545087042
