  62
        -98.94297892
 C         -1.9966459851       -1.4731545974       -0.0375353478
 C         -1.6975729101       -0.1589118392       -0.4707057117
 C         -2.8556749983        0.7026480149       -0.7451346187
 C         -4.1026900374        0.2260654483       -0.5859839997
 C         -5.3792830646        0.9793292261       -0.8436742491
 C         -5.8264877607        1.8657586914        0.3271363845
 C         -4.9893725191        3.1265859274        0.5482741552
 H         -4.9082138484        3.6762967724       -0.3899333414
 H         -5.5413525312        3.7572652296        1.2480654886
 C         -3.5882779268        2.8656400010        1.1191645942
 H         -3.5501572747        1.8596387534        1.5433941941
 H         -3.3922888817        3.5639033341        1.9358969598
 C         -2.4511876950        3.0192740744        0.1087963002
 H         -2.3891727810        4.0601009274       -0.2167640412
 H         -1.5140742973        2.7621375863        0.6094998800
 C         -2.5876603939        2.1260629846       -1.1309488956
 H         -3.3781985858        2.5006702060       -1.7807407037
 H         -1.6429352941        2.1490226890       -1.6800302634
 H         -5.8276589670        1.2643866738        1.2393057375
 H         -6.8570119171        2.1697145618        0.1292906533
 H         -5.2716255662        1.5874079814       -1.7423849140
 H         -6.1527862651        0.2292173569       -1.0222748426
 O         -4.3499429411       -1.0446504556       -0.1686666426
 C         -3.3120328307       -1.9090137618        0.1423713173
 O         -3.6839658452       -3.0212289463        0.5668789481
 H          1.8101869360       -2.1010202640       -0.2058371211
 C          1.4926322664       -1.6962543285        0.7399952490
 C          0.1674430668       -1.7758238514        1.1375308886
 C         -0.1986738204       -1.2124439707        2.3581570272
 C          0.7341559883       -0.5750990919        3.1517865062
 C          2.0548988203       -0.4887004369        2.7467038312
 C          2.4334613913       -1.0522493839        1.5344632932
 N          3.7781120238       -1.0154207377        1.1250855049
 S          4.2415950960       -0.4861133223       -0.3922657605
 O          3.5805100759       -1.2597563500       -1.4102204788
 O          5.6869029537       -0.5633659599       -0.3714277330
 C          3.7529157492        1.2287309553       -0.4666224884
 C          2.4160473155        1.5521401668       -0.5833654379
 C          2.0565501785        2.8915811462       -0.5910304184
 C          3.0261979326        3.8760623042       -0.4848494215
 C          4.3647631425        3.5321337037       -0.3684599756
 C          4.7327942031        2.1969337419       -0.3542395001
 H          5.7602117647        1.8822275465       -0.2664172608
 H          5.1193516541        4.2979903684       -0.2871681141
 H          2.7366842361        4.9152173698       -0.4932024208
 H          1.0123667373        3.1473784875       -0.6785180535
 H          1.6677637917        0.7800983792       -0.6641554893
 H          4.4034459128       -0.6259986523        1.8165190582
 H          2.7867926575        0.0086613091        3.3651958124
 H          0.4323989143       -0.1387679307        4.0921488126
 H         -1.2323724423       -1.2771647540        2.6717201686
 C         -0.8976129910       -2.4604160311        0.3147906558
 H         -1.3843899348       -3.2129556683        0.9579455549
 C         -0.3335558423       -3.2125241315       -0.8812218964
 C         -1.1705940767       -3.4922208030       -2.0927562991
 C         -0.0225062674       -2.5342325307       -2.1798648652
 H          0.8686335411       -2.8324529639       -2.7133276735
 H         -0.2356851083       -1.4800391221       -2.2566656267
 H         -1.0766058333       -4.4571496763       -2.5679238370
 H         -2.1742257855       -3.0921427051       -2.1128963656
 H          0.3424451527       -4.0062898815       -0.5764246487
 O         -0.5328911616        0.2879620661       -0.6239216853
