  62
        -98.94122100
 C         -1.5380358097       -1.6189751195       -0.2152068700
 C         -2.6765008598       -1.2527520699        0.5464234799
 C         -3.4776333802       -0.1283617502        0.0401302698
 C         -3.1016966104        0.4958319299       -1.0912619802
 C         -3.7557862608        1.6365919496       -1.8397495503
 C         -4.6417737811        2.6388265393       -1.1007804504
 C         -3.9548938915        3.4111979096        0.0229885295
 H         -3.1609211717        4.0273238599       -0.4064141505
 H         -4.6950600417        4.0833878194        0.4632606595
 C         -3.3433169712        2.5582945299        1.1338415996
 H         -3.0075363115        3.2332176501        1.9257326696
 H         -2.4585614910        2.0387135102        0.7605859697
 C         -4.2841617809        1.5332498396        1.7682236196
 H         -5.2108015810        2.0221640893        2.0740562596
 H         -3.7916255008        1.1568497199        2.6682905297
 C         -4.6317858904        0.3132150895        0.8907321297
 H         -4.8699311201       -0.5240481506        1.5524378197
 H         -5.5069862904        0.5007187091        0.2722391197
 H         -5.5336397610        2.1494095290       -0.7203891304
 H         -4.9731889014        3.3652796292       -1.8479728205
 H         -4.3490427806        1.1808208193       -2.6404903203
 H         -2.9390217809        2.1760543199       -2.3289243603
 O         -2.0077925302        0.0981944202       -1.8004303202
 C         -1.1920705998       -0.9427022595       -1.3832889901
 O         -0.2213610297       -1.1462826092       -2.1381428300
 O         -3.0128309096       -1.8448488799        1.6054278099
 C         -0.6501434093       -2.7281433692        0.3278006201
 C          0.6036166305       -2.0659998887        0.8422475001
 C          0.6370883802       -1.5631231086        2.1399775800
 C          1.7297019300       -0.8468391982        2.5931568800
 C          2.7994342299       -0.5906228878        1.7527327501
 C          2.7663989401       -1.0766405879        0.4526412401
 C          1.6901708904       -1.8339166283        0.0128013301
 H          1.6773510906       -2.1948887884       -1.0031203099
 N          3.8126107400       -0.7550014876       -0.4331147999
 S          4.2358136395        0.8650737225       -0.4939924600
 O          4.6753603394        1.1018500926       -1.8516642400
 O          5.2155159193        1.1364871429        0.5300772900
 C          2.7487715991        1.7933835320       -0.1440925401
 C          1.6145641392        1.5582886616       -0.8956319901
 C          0.4682369590        2.2861130812       -0.6195399502
 C          0.4715227586        3.2318528212        0.3934959697
 C          1.6195923785        3.4582771217        1.1364390698
 C          2.7688346487        2.7331408121        0.8671782898
 H          3.6814867787        2.8725924625        1.4236136999
 H          1.6204981282        4.1937232618        1.9246587597
 H         -0.4263666516        3.7913443909        0.6047688396
 H         -0.4230086709        2.0970512808       -1.1973053802
 H          1.6148151195        0.8109815015       -1.6740869101
 H          3.6621216002       -1.1120856377       -1.3662199899
 H          3.6504682397       -0.0137902775        2.0775035201
 H          1.7439714198       -0.4702343281        3.6043995000
 H         -0.2153922997       -1.7250186788        2.7842016000
 H         -1.1956875292       -3.1474495693        1.1830401201
 C         -0.3992017988       -3.8301888091       -0.6786177399
 C          0.1807457716       -5.1292175589       -0.2072502598
 C         -1.2514336084       -5.0619206494       -0.6425754098
 H         -1.5294186282       -5.5228534496       -1.5786063598
 H         -2.0190753684       -5.1175035997        0.1152602302
 H          0.8886865018       -5.6394894587       -0.8423394597
 H          0.3860554016       -5.2283397588        0.8479176103
 H         -0.1019796089       -3.4687252591       -1.6550453799
