  62
        -98.93819800
 C         -2.4679903183       -0.7744199788        0.0126781597
 C         -2.8034400883        0.3851973211        0.7581384699
 C         -3.8906092682        1.2149840713        0.2258158501
 C         -4.4837453882        0.8544266415       -0.9266041800
 C         -5.6370862182        1.5753749817       -1.5607930998
 C         -6.9796302682        1.0064369216       -1.0809463199
 C         -7.0835175982        0.8667146713        0.4378161400
 H         -8.0821368583        0.4854030713        0.6618919200
 H         -6.3686691483        0.1130170712        0.7760843399
 C         -6.8483141182        2.1705721712        1.2131420503
 H         -6.9598099182        3.0247086813        0.5442934605
 H         -7.6147630582        2.2616492510        1.9857091403
 C         -5.4932477082        2.2534221010        1.9184402403
 H         -5.5191580582        3.1033253808        2.6056769305
 H         -5.3365867182        1.3531823908        2.5181826201
 C         -4.2755805482        2.4412154511        1.0046598704
 H         -3.4159266382        2.6741239710        1.6397746904
 H         -4.4458042882        3.2858653913        0.3339357505
 H         -7.7790945282        1.6548166217       -1.4440387498
 H         -7.1153102583        0.0178191917       -1.5255721801
 H         -5.5664717582        1.4524141719       -2.6427882898
 H         -5.5724273482        2.6347288616       -1.3200530796
 O         -4.1226478283       -0.2486122884       -1.6265818602
 C         -3.1104609583       -1.0938505385       -1.1844620303
 O         -2.9036777684       -2.0595798883       -1.9405145005
 O         -2.2195924483        0.7051500409        1.8290615900
 C         -1.3520971883       -1.6376724989        0.5749551095
 C         -0.0223342383       -1.1903798388        0.0233070696
 C          0.2084734117       -1.1354752986       -1.3482436304
 C          1.4312742017       -0.7108457485       -1.8340884203
 C          2.4414236617       -0.3227579487       -0.9703752302
 C          2.2209785817       -0.3702032690        0.3991630198
 C          0.9943325317       -0.8082600491        0.8852178197
 H          0.8212557717       -0.8317417793        1.9527284897
 N          3.2247418217        0.0496999608        1.2824271299
 S          4.8205932117       -0.3792773992        1.0125117398
 O          4.9204634017       -1.6579133591        0.3485874295
 O          5.4569938117       -0.2760473195        2.3071299598
 C          5.4391262118        0.9126407410       -0.0447137899
 C          6.0959513917        0.5886702712       -1.2155935500
 C          6.5798953418        1.6106465713       -2.0175362598
 C          6.4003981618        2.9312467113       -1.6356071095
 C          5.7411379018        3.2397520210       -0.4549245395
 C          5.2558634418        2.2229033609        0.3516093903
 H          4.7395347218        2.4221185407        1.2759545004
 H          5.6028407919        4.2679348710       -0.1614821093
 H          6.7762107219        3.7250063914       -2.2617663794
 H          7.0928462018        1.3730437015       -2.9356483499
 H          6.2074653817       -0.4519739188       -1.4761359702
 H          2.9769921917       -0.0121604194        2.2586545699
 H          3.3934325317        0.0116363413       -1.3485298701
 H          1.5995828817       -0.6759020183       -2.8998753903
 H         -0.5808232183       -1.4295263984       -2.0237303404
 H         -1.3491648883       -1.4164488791        1.6543229496
 C         -1.6025795584       -3.1312318389        0.4228406092
 C         -0.7674488484       -4.0378888087       -0.4255496509
 C         -0.6668866684       -4.1120727490        1.0665401590
 H         -1.0810096285       -4.9687760491        1.5762627589
 H          0.2285632116       -3.7166018592        1.5234035891
 H         -1.2739672985       -4.8305719186       -0.9545861811
 H          0.0627026416       -3.6153565086       -0.9689986109
 H         -2.6600181284       -3.3699761488        0.4725345092
