  62
        -98.93885487
 C          1.8572206050        0.8910097668       -0.1176105892
 C          2.4459455940        0.1661443041        0.9418973247
 C          3.5582988453       -0.7404270723        0.5969352623
 C          3.9209616152       -0.8546998842       -0.6945909079
 C          5.0398491035       -1.6758787051       -1.2781274858
 C          6.4221731023       -1.0470153982       -1.0391203071
 C          6.6500719808       -0.5112118360        0.3719299041
 H          5.8860629771        0.2342009403        0.5999169893
 H          7.6154773589        0.0015112198        0.3799438483
 C          6.6740331463       -1.5679655943        1.4736941408
 H          6.9330111863       -1.0590532719        2.4057078364
 H          7.4647251051       -2.2906437235        1.2599719224
 C          5.3667329980       -2.3308652853        1.6976858781
 H          5.4569503596       -2.8577402766        2.6522514831
 H          5.2223989106       -3.0943259576        0.9378203430
 C          4.1252677031       -1.4507130846        1.8029571088
 H          4.2997845657       -0.6741521605        2.5564518739
 H          3.3025452669       -2.0572318279        2.2014607896
 H          6.5370370236       -0.2118988079       -1.7344249500
 H          7.1847186397       -1.7906554588       -1.2767984158
 H          4.8623263399       -1.7262032398       -2.3547531007
 H          5.0023872726       -2.6894712479       -0.8898826907
 O          3.2977653652       -0.1616902638       -1.6903103949
 C          2.2609783513        0.7189607552       -1.4411343610
 O          1.7942271296        1.2687818823       -2.4560112215
 O          2.0604156511        0.2669328883        2.1394348715
 C          0.7223510445        1.8518497809        0.1864062123
 C         -0.5417623061        1.3899653118       -0.4962088714
 C         -1.3540742405        2.2218309373       -1.2545703171
 C         -2.4972382644        1.7254255100       -1.8585886150
 C         -2.8607136734        0.4001283174       -1.7120134540
 C         -2.0658453647       -0.4360696040       -0.9369801831
 C         -0.9232687208        0.0632135954       -0.3322812339
 H         -0.3041396017       -0.5913173048        0.2689293804
 N         -2.4364370253       -1.7799599941       -0.7621936019
 S         -4.0428643187       -2.1116392216       -0.4307933311
 O         -4.0272741328       -3.3473006782        0.3206770832
 O         -4.7972607425       -2.1339871313       -1.6592111521
 C         -4.5999833768       -0.7608727945        0.5935914354
 C         -3.9461330565       -0.5373935640        1.7892169304
 C         -4.3443013051        0.5263425048        2.5821363957
 C         -5.3846134843        1.3444689697        2.1682946278
 C         -6.0344836801        1.1036970160        0.9680003662
 C         -5.6388120488        0.0423441221        0.1696630840
 H         -6.1135409557       -0.1788118346       -0.7723316477
 H         -6.8439563898        1.7403422544        0.6494772186
 H         -5.6895332001        2.1735538373        2.7870623213
 H         -3.8386934457        0.7145264087        3.5157568833
 H         -3.1427884744       -1.1928445573        2.0860922807
 H         -1.8193569467       -2.3016531924       -0.1579328192
 H         -3.7375034117       -0.0040389595       -2.1913087212
 H         -3.1121617963        2.3805583361       -2.4562559076
 H         -1.0875183208        3.2575087573       -1.3837674260
 H          0.5660067169        1.7813780725        1.2732635015
 C          1.1195629105        3.2713458526       -0.1578678123
 C          0.5089921893        4.4252491721        0.5782259901
 C          1.9387996079        4.0514634816        0.8248225464
 H          2.7166615533        4.6988272396        0.4485486497
 H          2.1890998049        3.5669388614        1.7574394599
 H          0.3056775964        5.3347654871        0.0335247377
 H         -0.2125155265        4.2006572246        1.3488544975
 H          1.3499572733        3.3955322153       -1.2098955491
