  62
        -98.93903899
 C          1.5021779408        0.8000237101       -0.3480223593
 C          2.7982099208        1.3588194402       -0.3190553590
 C          3.9321492808        0.4169282802       -0.4032079592
 C          3.6719169309       -0.8998748197       -0.5071749797
 C          4.6546662909       -2.0386092197       -0.5751098400
 C          5.2757020808       -2.3694949102        0.7918784800
 C          5.6991209406       -1.1568954705        1.6167476305
 H          4.8352780405       -0.5070075006        1.7680034206
 H          6.0101727905       -1.5165356608        2.6012249804
 C          6.8508875006       -0.3422900702        1.0329232010
 H          7.7270968607       -0.9859404501        0.9265629808
 H          7.0983714905        0.4368522595        1.7586307113
 C          6.5783608308        0.3320638103       -0.3130937588
 H          6.6309057709       -0.3848861194       -1.1279696491
 H          7.3824508208        1.0541209504       -0.4834828384
 C          5.2707533808        1.1150911103       -0.3820686787
 H          5.2301379306        1.8182348200        0.4578698716
 H          5.2891166809        1.7438243806       -1.2807364885
 H          6.1358395508       -3.0218026701        0.6319520698
 H          4.5349496507       -2.9235866604        1.3733394196
 H          5.4250999510       -1.8222757594       -1.3092498298
 H          4.0986520310       -2.9115305596       -0.9237313504
 O          2.4008106409       -1.3941236598       -0.5249092601
 C          1.2889744309       -0.5749616499       -0.4443365499
 O          0.1991842409       -1.1740253299       -0.4688561403
 O          3.0100936407        2.5986336101       -0.2173479184
 C          0.2950551207        1.7159993200       -0.2792984292
 C         -0.5922724094        1.3236918995        0.8751767106
 C         -0.0230581596        1.1244143591        2.1308586006
 C         -0.8005657097        0.7459294786        3.2072690303
 C         -2.1621793997        0.5478617386        3.0551257400
 C         -2.7425312895        0.7590321291        1.8110714100
 C         -1.9603484294        1.1566564595        0.7345496903
 H         -2.4411800793        1.3359304599       -0.2112968397
 N         -4.1204008895        0.5882277891        1.6290039098
 S         -4.7474652593        0.1123532197        0.1580763895
 O         -4.7620753692        1.2256574300       -0.7582175301
 O         -6.0450750093       -0.4361371805        0.4930193691
 C         -3.6884018391       -1.1812328101       -0.4616925908
 C         -3.1734693889       -1.0830412595       -1.7371980707
 C         -2.3722824188       -2.1047720993       -2.2181409410
 C         -2.0976992389       -3.2003378296       -1.4169487114
 C         -2.6239728391       -3.2856053801       -0.1382700815
 C         -3.4292496492       -2.2691579804        0.3465517888
 H         -3.8556100693       -2.3117276308        1.3359360387
 H         -2.4016694091       -4.1377408304        0.4839809082
 H         -1.4624719688       -3.9882914895       -1.7893491616
 H         -1.9552813987       -2.0380375989       -3.2107175209
 H         -3.4042926989       -0.2083847093       -2.3253063004
 H         -4.6141672896        0.1785807788        2.4073949896
 H         -2.7696134898        0.2394418283        3.8920797198
 H         -0.3431355098        0.5933980283        4.1733071203
 H          1.0427454104        1.2658742591        2.2486218808
 H          0.6957257107        2.7222138900       -0.0851077987
 C         -0.4259504491        1.7239249905       -1.6110027593
 C         -1.2286150191        2.9177233406       -2.0309745389
 C          0.0710191810        2.6109215210       -2.7111418188
 H          0.0499194212        2.2384873214       -3.7243218890
 H          0.9222632010        3.2398928909       -2.4947980685
 H         -2.1502809090        2.7579021508       -2.5709110691
 H         -1.2613822592        3.7597159904       -1.3559383486
 H         -0.7905437490        0.7400518506       -1.8868303497
