  62
        -98.94040489
 C         -2.0773900781       -1.0331735444        0.0855018225
 C         -2.3575629373        0.3549619729        0.1521265407
 C         -3.7086453809        0.7096019566        0.6143289978
 C         -4.5707503241       -0.2517783895        0.9872708462
 C         -5.9714757861       -0.0421032796        1.4947964921
 C         -7.0184560493        0.1247937619        0.3849751330
 C         -6.9682840678        1.4581225796       -0.3623544202
 H         -6.9833825258        2.2775391121        0.3570342392
 H         -7.8830181106        1.5277817432       -0.9544043686
 C         -5.7620636341        1.6151433745       -1.2988062269
 H         -6.0968029721        2.0092814923       -2.2610217918
 H         -5.3206717539        0.6345596052       -1.4916550120
 C         -4.6739424271        2.5545998061       -0.7784440485
 H         -5.0701623764        3.5699295819       -0.7062062145
 H         -3.8546382606        2.5655635031       -1.5021045671
 C         -4.0960286562        2.1573775071        0.5863602999
 H         -4.8141194859        2.3753834647        1.3765965323
 H         -3.1922133814        2.7463930080        0.7618106433
 H         -8.0028766746        0.0301515291        0.8490566612
 H         -6.9070405329       -0.6962864011       -0.3270927888
 H         -6.2264571932       -0.9294144001        2.0783444051
 H         -5.9963928635        0.8259200307        2.1542505111
 O         -4.2436931932       -1.5711446370        0.9632468585
 C         -3.0055711678       -1.9909926118        0.5058572966
 O         -2.8488624476       -3.2281749238        0.5302470013
 H          0.9481263955        0.3648805563       -1.3782797756
 C          1.1557477897        0.1186947306       -0.3487576802
 C          0.3857418016       -0.8339226049        0.2991436070
 C          0.6525009245       -1.1102210651        1.6366167080
 C          1.6566240587       -0.4407096813        2.3107134099
 C          2.4143561999        0.5202533776        1.6653274567
 C          2.1539911242        0.8043294256        0.3312568745
 N          2.9136912383        1.7840987016       -0.3271878143
 S          4.5693728903        1.7933889806       -0.1149661540
 O          4.9016080190        2.4069075998        1.1468607785
 O          5.0993427138        2.4444580338       -1.2924611262
 C          5.0361602422        0.0711526927       -0.0906750202
 C          5.5825389664       -0.4827268586        1.0486550302
 C          5.8985211171       -1.8321545566        1.0529565675
 C          5.6598774879       -2.6008329047       -0.0753177363
 C          5.1133042842       -2.0288228692       -1.2142317053
 C          4.7966514266       -0.6805044099       -1.2242600990
 H          4.3778366757       -0.2025734379       -2.0952403927
 H          4.9308946116       -2.6289236153       -2.0912581242
 H          5.9022068094       -3.6518446107       -0.0691118609
 H          6.3261214310       -2.2790719466        1.9359880403
 H          5.7508751260        0.1503891535        1.9044865925
 H          2.6515117774        1.9352930921       -1.2893327531
 H          3.1874192036        1.0677402301        2.1797342695
 H          1.8483144052       -0.6634824720        3.3493948004
 H          0.0519962019       -1.8520600513        2.1455033630
 C         -0.7362933464       -1.5700013817       -0.3886785175
 H         -0.7145438040       -2.6154388735       -0.0418526073
 C         -0.5795926632       -1.6144696299       -1.9019047900
 C         -1.7419231261       -1.9792776337       -2.7752443832
 C         -1.1799408106       -0.5914997927       -2.8168168017
 H         -0.6177190210       -0.2947250911       -3.6907092066
 H         -1.7500994507        0.2100339310       -2.3748321480
 H         -2.6967869813       -2.1313454682       -2.2929180420
 H         -1.5701912898       -2.6323863675       -3.6174899706
 H          0.3855626253       -2.0188259654       -2.1920586374
 O         -1.5449855135        1.2634421657       -0.1564793921
