  62
        -98.94310296
 C         -2.5581452912       -0.1815087140        0.5335379667
 C         -2.2023719634        0.3586835277       -0.7278591174
 C         -1.9895459319        1.8140660996       -0.7669241767
 C         -2.0955496997        2.5304254694        0.3655116210
 C         -1.8775881583        4.0116771729        0.4746703089
 C         -0.4229043166        4.3454211074        0.8297081377
 C          0.6101813974        3.6484823600       -0.0561221736
 H          0.5956672751        2.5733053008        0.1410957388
 H          1.5950185999        4.0104938618        0.2494544605
 C          0.4224055402        3.8838075318       -1.5614002692
 H          1.3983480989        4.0928982657       -2.0041613792
 H         -0.2051103364        4.7611156935       -1.7265860356
 C         -0.1605749893        2.6858348944       -2.3139037361
 H          0.3853797517        1.7826899860       -2.0305815419
 H         -0.0087098331        2.8466176388       -3.3849431382
 C         -1.6572201135        2.4275271200       -2.0977560457
 H         -1.9808358618        1.7023389611       -2.8502737390
 H         -2.2188671499        3.3529973774       -2.2465689012
 H         -0.2406922908        4.0462310686        1.8648059387
 H         -0.2929979829        5.4274464277        0.7594747092
 H         -2.5297780482        4.3946683045        1.2619707681
 H         -2.1487247397        4.4813147668       -0.4690490832
 O         -2.3946415613        1.9718576382        1.5678047441
 C         -2.6096196715        0.6088319771        1.6829815178
 O         -2.8423927461        0.2262953354        2.8491201129
 O         -2.0859201528       -0.3245381315       -1.7778608360
 C         -2.7644332093       -1.6750128165        0.7323485732
 C         -1.6294229099       -2.4179787423        0.0708789633
 C         -1.7924447631       -3.4405443114       -0.8533398491
 C         -0.6861295302       -4.0372014567       -1.4340926396
 C          0.5940532588       -3.6191591746       -1.1223455974
 C          0.7668281265       -2.6025607372       -0.1891536757
 C         -0.3395800007       -2.0322420195        0.4146832029
 H         -0.1972004734       -1.2407504245        1.1381054528
 N          2.0513495134       -2.1485350083        0.1664976399
 S          2.2143470048       -0.4901586758        0.4576250889
 O          1.8490018856       -0.2220363482        1.8279675642
 O          1.5191439301        0.2680176843       -0.5547032878
 C          3.9777058953       -0.2998253761        0.2716304434
 C          4.4850037098        0.3246514023       -0.8514390195
 C          5.8595647531        0.4426562164       -0.9891873436
 C          6.6977837681       -0.0662349347       -0.0089252444
 C          6.1733239754       -0.6901760045        1.1137413089
 C          4.8004826392       -0.8092075645        1.2588957579
 H          4.3463796692       -1.2758003847        2.1175085072
 H          6.8279376124       -1.0825218276        1.8750912884
 H          7.7666964670        0.0260195408       -0.1189143118
 H          6.2693095722        0.9302798178       -1.8589680545
 H          3.7931634004        0.7080010636       -1.5842957191
 H          2.7659310618       -2.4773245562       -0.4694732458
 H          1.4527798541       -4.0677223851       -1.5985903575
 H         -0.8250944361       -4.8260422498       -2.1579411574
 H         -2.7832141415       -3.7507004554       -1.1421866300
 H         -2.6697518641       -1.8270781566        1.8213552826
 C         -4.1433205122       -2.1861169635        0.3435284450
 C         -5.3314291876       -1.2720419934        0.3376245904
 C         -4.8012158768       -1.8198133577       -0.9515081061
 H         -5.3813975736       -2.5752723159       -1.4611513674
 H         -4.2636892351       -1.1588262881       -1.6120468927
 H         -6.2702858223       -1.6500192228        0.7137570234
 H         -5.1588766070       -0.2288711338        0.5610662129
 H         -4.3181051208       -3.1927324919        0.7112842503
