  62
        -98.94317380
 C         -1.2521728143       -1.0624282356       -0.0711655434
 C         -1.7862961884       -0.0565509267        0.7702864994
 C         -2.7000339715        0.8957260705        0.1292550049
 C         -2.9660844467        0.7839460287       -1.1848172422
 C         -3.8578775410        1.6928608270       -1.9868391593
 C         -5.3488714250        1.3384481494       -1.9022030379
 C         -6.0222936046        1.6707347904       -0.5699901694
 H         -5.8209895045        2.7110293853       -0.3121338215
 H         -7.0991321560        1.5766470477       -0.7239269750
 C         -5.6084699035        0.7591413099        0.5937774447
 H         -5.1397527795       -0.1450906113        0.1985678136
 H         -6.4985846327        0.4435797183        1.1426767903
 C         -4.6605370666        1.4085729166        1.6019168997
 H         -5.1684925592        2.2368649850        2.1007560187
 H         -4.4057576607        0.6639255709        2.3600610281
 C         -3.3531808364        1.9320852830        0.9928770260
 H         -3.5418405349        2.8411493019        0.4221718269
 H         -2.6646384512        2.1644287455        1.8087526956
 H         -5.4673420616        0.2734802669       -2.1153425426
 H         -5.8606009157        1.8934265319       -2.6920016243
 H         -3.7103574944        2.7258717217       -1.6699925843
 H         -3.5410853340        1.6002168600       -3.0281165684
 O         -2.4178863704       -0.1869289613       -1.9643139678
 C         -1.5580609385       -1.1393338770       -1.4298597713
 O         -1.1367380005       -1.9691873344       -2.2576111588
 H          0.8267295116        0.0402698328       -0.7397704872
 C          1.5126215282       -0.7947862773       -0.6651110907
 C          1.0882173371       -1.9740959386       -0.0701298542
 C          1.9963394810       -3.0244908136        0.0182744887
 C          3.2840190024       -2.8925900377       -0.4714629115
 C          3.6995669534       -1.7126988971       -1.0638331277
 C          2.7983259785       -0.6648698919       -1.1680480083
 N          3.2268709433        0.5624166343       -1.7392144034
 S          4.0431617001        1.5315087305       -0.6380687096
 O          4.2090983036        2.8165591058       -1.2785031080
 O          5.2480339930        0.8493172236       -0.2427296743
 C          2.9223917634        1.6626508116        0.7421567276
 C          1.9627516598        2.6550971700        0.7274696222
 C          1.0128100944        2.6842306885        1.7354964993
 C          1.0289704418        1.7166613530        2.7281758933
 C          1.9983136386        0.7258924690        2.7266930105
 C          2.9534155468        0.6923962391        1.7237486042
 H          3.7192119571       -0.0655237052        1.6846951788
 H          2.0014869402       -0.0289036721        3.4963822425
 H          0.2721178024        1.7228088777        3.4957944675
 H          0.2543518632        3.4510071997        1.7371687199
 H          1.9814625829        3.3872044571       -0.0648173221
 H          2.4611479537        1.0979906810       -2.1254730272
 H          4.7030007102       -1.5824558349       -1.4343064780
 H          3.9743583603       -3.7180340439       -0.3893233010
 H          1.6916853679       -3.9504590865        0.4786944355
 C         -0.2946075151       -2.0693791435        0.5293913179
 H         -0.2117641524       -1.7874360646        1.5909405685
 C         -0.8669225954       -3.4720120564        0.4443714204
 C         -0.6787797640       -4.4467401139        1.5673784680
 C         -2.0237781149       -3.8327000693        1.3265074919
 H         -2.8120551908       -4.4479178481        0.9193603883
 H         -2.3720598720       -3.0785312341        2.0172927090
 H         -0.5431611101       -5.4902549681        1.3257004129
 H         -0.1257450692       -4.1165987656        2.4338247727
 H         -0.8755167306       -3.8550005714       -0.5698309907
 O         -1.5069845229        0.0433128114        1.9931653905
