  62
        -98.94567955
 C          0.9846392702        1.1493207903       -0.2590278295
 C          2.0354985801        1.2318924800        0.6924830306
 C          2.9244613100        0.0683770500        0.7897156605
 C          2.6993163700       -0.9940266399       -0.0040977497
 C          3.5673047699       -2.2168822300       -0.0648154498
 C          4.6679019000       -2.0643291099       -1.1245411397
 C          5.4414031901       -0.7492561700       -1.0304065494
 H          4.7673165302        0.0783046801       -1.2631426093
 H          6.2081288602       -0.7662468099       -1.8081462294
 C          6.1012574700       -0.4967558202        0.3324142407
 H          7.1209608301       -0.1421725403        0.1676204208
 H          6.1701717799       -1.4314902903        0.8899252205
 C          5.3969788400        0.5547998297        1.1916712008
 H          5.2449900902        1.4647145498        0.6055944209
 H          6.0563861300        0.8099867495        2.0255607309
 C          4.0473256100        0.1335267997        1.7865373106
 H          3.7558824000        0.8933829996        2.5172674207
 H          4.1569750298       -0.8200368104        2.3064320705
 H          4.2063221001       -2.1181465397       -2.1132135497
 H          5.3603200799       -2.9025387099       -1.0268258498
 H          4.0130447598       -2.3886850901        0.9129095402
 H          2.9428963099       -3.0709281399       -0.3290562700
 O          1.6752560501       -1.0468992397       -0.8898502298
 C          0.7891263302        0.0106834804       -1.0412046897
 O         -0.0926708998       -0.2040478994       -1.8952681398
 H         -1.9956379998        0.6292484506       -0.8015070098
 C         -2.1235899898        1.2017756805        0.1034792803
 C         -1.1694989598        2.1402036003        0.4739479205
 C         -1.3556539598        2.8589691802        1.6497544706
 C         -2.4736672399        2.6467827401        2.4359931205
 C         -3.4188358799        1.7063211603        2.0703355003
 C         -3.2385055399        0.9774150104        0.8985877802
 N         -4.1802269999        0.0142215206        0.5194962399
 S         -3.8110738500       -1.2638366693       -0.4802155702
 O         -3.7227280398       -0.8206866991       -1.8480756402
 O         -4.8657143701       -2.2224423392       -0.2105676805
 C         -2.2649593401       -1.9651491895        0.0706340298
 C         -1.5091368401       -2.6535804294       -0.8554492703
 C         -0.3495887601       -3.2879207996       -0.4404866603
 C          0.0383089798       -3.2152785998        0.8875382298
 C         -0.7268665603       -2.5132028099        1.8047520298
 C         -1.8954381302       -1.8892931497        1.3983855098
 H         -2.5037600102       -1.3440261798        2.1015796799
 H         -0.4169179303       -2.4489451301        2.8356215399
 H          0.9440748297       -3.7039641899        1.2110885898
 H          0.2496385599       -3.8238743895       -1.1592024003
 H         -1.8317465600       -2.6650939192       -1.8839669503
 H         -4.8806809600       -0.2178287895        1.2072009199
 H         -4.2901360800        1.5326693503        2.6830182002
 H         -2.6074061699        3.2130919800        3.3449526906
 H         -0.6065066998        3.5760949501        1.9511894408
 C          0.0686059503        2.3584071804       -0.3617950693
 H          0.6341051503        3.1833316803        0.0933268808
 C         -0.2796834495        2.7490922706       -1.7832395993
 C         -0.7020082194        4.1594521507       -2.0623527491
 C          0.6337446706        3.6694008907       -2.5334920691
 H          0.7813572007        3.4995601808       -3.5894958691
 H          1.5161740006        4.0252488805       -2.0215027490
 H         -0.7235683694        4.8494388306       -1.2322991790
 H         -1.4764685293        4.3281198109       -2.7948271292
 H         -0.7598539096        1.9603074108       -2.3475411195
 O          2.2249285702        2.2415420499        1.4222574908
