  62
        -98.94183835
 C         -2.7815100747       -0.3929563462       -0.2557668896
 C         -2.0827995850        0.4672167883       -1.1376875564
 C         -2.1721857503        1.9048492256       -0.8425482273
 C         -2.9133379413        2.3274754386        0.1961609782
 C         -3.0542288536        3.7566178319        0.6311921065
 C         -2.0080762929        4.1269530658        1.6913037619
 C         -0.5772452916        3.7329770369        1.3225474913
 H          0.0741014164        4.0925279051        2.1226996042
 H         -0.4869205806        2.6434018737        1.3119939693
 C         -0.0868002899        4.2882292669       -0.0215917420
 H         -0.7111690413        5.1288610863       -0.3280597598
 H          0.9290269215        4.6662757339        0.1107500110
 C         -0.0339680849        3.2518817784       -1.1459054882
 H          0.5584507201        3.6678041868       -1.9657551140
 H          0.4793063535        2.3570389828       -0.7818668541
 C         -1.3921752319        2.8359607992       -1.7269824871
 H         -1.2066084907        2.2852967614       -2.6537032986
 H         -1.9785752943        3.7252685597       -1.9671504470
 H         -2.0565034391        5.2046395264        1.8592745000
 H         -2.2686198220        3.6250386990        2.6261151400
 H         -4.0503069350        3.8873808678        1.0578906892
 H         -2.9529931844        4.4058464942       -0.2362941846
 O         -3.6028670704        1.4781290118        0.9998654879
 C         -3.5273143265        0.1097433338        0.8156883545
 O         -4.1748308332       -0.5524020890        1.6520369082
 O         -1.4101602841        0.0822566188       -2.1328427861
 C         -2.7267999067       -1.9131669466       -0.3451436250
 C         -1.4401721826       -2.3829131221        0.2909948502
 C         -1.4408540124       -3.1243888974        1.4663922714
 C         -0.2511090692       -3.4596328594        2.0906903494
 C          0.9618478561       -3.0462823249        1.5679242606
 C          0.9690399083       -2.3084045494        0.3929263665
 C         -0.2194807874       -2.0029691409       -0.2484423326
 H         -0.2001103962       -1.4135319256       -1.1531271400
 N          2.2007621675       -1.8099509747       -0.1146088630
 S          2.6779574159       -0.4455325981        0.7754643841
 O          2.9685112459       -0.8756577346        2.1200709069
 O          1.6967466985        0.6097275169        0.6435342323
 C          4.1887167219        0.0015307870       -0.0575222703
 C          4.1932077528        1.0620866732       -0.9421987588
 C          5.3695629227        1.3753664528       -1.6055515656
 C          6.5118768488        0.6234418476       -1.3770659259
 C          6.4902331767       -0.4403777379       -0.4870187557
 C          5.3184360196       -0.7575351379        0.1806757987
 H          5.2544178701       -1.5690625067        0.8861208771
 H          7.3809839497       -1.0218250731       -0.3120764121
 H          7.4251950066        0.8693752359       -1.8953930940
 H          5.3888446464        2.2026074054       -2.2967208701
 H          3.2821323471        1.6216058371       -1.0854567860
 H          2.0782412193       -1.5028999267       -1.0734018129
 H          1.8923652872       -3.2591400652        2.0678853597
 H         -0.2699510169       -4.0326764846        3.0054788067
 H         -2.3847163107       -3.4123496917        1.9067967497
 H         -3.5602190928       -2.2791135230        0.2691393253
 C         -2.8950480648       -2.4506335920       -1.7517273276
 C         -3.3449102730       -3.8677995897       -1.9349213739
 C         -4.2729954147       -2.7379772452       -2.2636421427
 H         -4.4900045533       -2.5298438412       -3.3004672070
 H         -5.1023871806       -2.5479306538       -1.5977518020
 H         -2.9236921229       -4.4400950640       -2.7469656376
 H         -3.5473249523       -4.4467855830       -1.0465263648
 H         -2.1778846124       -2.0526069656       -2.4566642926
