  62
        -98.93595457
 C         -2.3334783465       -0.5831066754        0.0569007422
 C         -3.4106441262       -0.5314142100        0.9729406548
 C         -4.4656137972        0.4491618559        0.6778768222
 C         -4.3404477155        1.2385795249       -0.4047449083
 C         -5.3652985550        2.2272440345       -0.8836274183
 C         -6.5138154399        1.4885944880       -1.6004222133
 C         -7.8656505595        1.5870520473       -0.8931552063
 H         -8.2839212591        2.5812780472       -1.0636939368
 H         -8.5343649105        0.8632990247       -1.3640358093
 C         -7.8480779676        1.3395975786        0.6183740696
 H         -7.5061233246        2.2384028976        1.1336200595
 H         -8.8836054618        1.1796516160        0.9262223530
 C         -7.0040391560        0.1502048783        1.0943591690
 H         -6.8886158919       -0.5839484365        0.2966792781
 H         -7.5419434516       -0.3445497966        1.9056788090
 C         -5.6157007966        0.5286181771        1.6435888294
 H         -5.6568973666        1.5298395598        2.0813946454
 H         -5.3556999794       -0.1694064808        2.4449508820
 H         -6.6271226328        1.8852255405       -2.6104866434
 H         -6.2325278791        0.4386446218       -1.7055975786
 H         -5.7455997649        2.8004127756       -0.0410431118
 H         -4.8633561786        2.9077504797       -1.5715604255
 O         -3.2794916976        1.1723881857       -1.2504612380
 C         -2.2516871162        0.2632208219       -1.0481554020
 O         -1.3492265651        0.3089566437       -1.9048781027
 H          1.1551067007       -1.8153943001       -1.1063249974
 C          1.2038807516       -1.0970079852       -0.3029475263
 C          0.0903568170       -0.8649267977        0.4873484059
 C          0.1907047548        0.0672381113        1.5176309499
 C          1.3685838477        0.7532292749        1.7391078572
 C          2.4750027277        0.5275861498        0.9378616650
 C          2.3891206896       -0.4036673886       -0.0864829910
 N          3.5054294269       -0.6328672367       -0.9073990552
 S          4.9923086410       -0.9219651807       -0.1874677327
 O          5.7399078574       -1.6884955239       -1.1603726690
 O          4.8392429615       -1.5181870676        1.1193020048
 C          5.7252264410        0.6938545387       -0.0393301283
 C          5.8662452200        1.4533720434       -1.1841722543
 C          6.4473812392        2.7075302557       -1.0876343584
 C          6.8778885310        3.1772684004        0.1443982935
 C          6.7321368785        2.4012836939        1.2839970090
 C          6.1507709663        1.1460273344        1.1942399154
 H          6.0136182438        0.5094298804        2.0539175766
 H          7.0681166404        2.7680631759        2.2406084879
 H          7.3301774296        4.1538094650        0.2164188605
 H          6.5624180535        3.3139176154       -1.9716631111
 H          5.5225228833        1.0512000316       -2.1226014748
 H          3.3334250291       -1.2816318811       -1.6615196431
 H          3.3964243754        1.0621496595        1.1016640600
 H          1.4279353461        1.4732619432        2.5412427043
 H         -0.6737300248        0.2452793302        2.1428787367
 C         -1.2196320306       -1.5873701786        0.2934296864
 H         -1.4733930931       -2.0851702173        1.2409030581
 C         -1.1967883234       -2.6252493828       -0.8084480630
 C         -0.5931871592       -3.9737893742       -0.5557245843
 C         -2.0788635084       -3.8302872286       -0.6892693159
 H         -2.5560864390       -4.2100725106       -1.5802116741
 H         -2.6845312962       -3.9163963590        0.2009163966
 H         -0.0513077748       -4.4566438478       -1.3552768423
 H         -0.1865683367       -4.1623197236        0.4265307841
 H         -1.0816454695       -2.1879754320       -1.7941076167
 O         -3.4839919539       -1.2697187178        1.9924461574
