  62
        -98.94026041
 C         -2.5006088785       -1.1629217447        0.0189378455
 C         -2.6026164210       -0.0242974457       -0.8162819772
 C         -3.9598916526        0.5028591221       -1.0064237960
 C         -5.0063625795       -0.1167081666       -0.4311144655
 C         -6.4492575430        0.2952508607       -0.5426364598
 C         -6.8620067979        1.3877766487        0.4535982071
 C         -6.3186660020        2.7849030174        0.1508606651
 H         -6.5507815312        3.0480135680       -0.8815098795
 H         -6.8570446864        3.4836253596        0.7942530580
 C         -4.8123239523        2.9472185905        0.3989791377
 H         -4.4551986524        2.1281893218        1.0275870210
 H         -4.6309131971        3.8735829969        0.9485709426
 C         -3.9623277934        3.0004731854       -0.8706405273
 H         -2.9117071251        3.0724102709       -0.5772064887
 H         -4.2151312962        3.8949146362       -1.4443062067
 C         -4.1140056259        1.7757993927       -1.7823645616
 H         -5.0774499248        1.8002308237       -2.2908763231
 H         -3.3194106923        1.8054957716       -2.5319226933
 H         -7.9532814608        1.4370510160        0.4489441075
 H         -6.5473331657        1.0836220140        1.4545570677
 H         -6.6578931876        0.6294096758       -1.5591655025
 H         -7.0442150840       -0.5978092395       -0.3402136029
 O         -4.8679009580       -1.2336828973        0.3328414841
 C         -3.6164163009       -1.7649737786        0.5994175520
 O         -3.6292569095       -2.7580917134        1.3553246311
 O         -1.6172199041        0.5268101278       -1.3721437242
 C         -1.1366100431       -1.7562713926        0.3212546599
 C         -0.2447543327       -0.6968451086        0.9224620858
 C         -0.7116853321        0.0235514071        2.0197371913
 C          0.0631462975        1.0075644889        2.6009614080
 C          1.3257661486        1.2873610725        2.1082267118
 C          1.8016835536        0.5745295984        1.0146271045
 C          1.0195143397       -0.4143518775        0.4324442558
 H          1.4153263805       -0.9513934086       -0.4128689889
 N          3.0647414237        0.8628097010        0.4742711944
 S          3.9785591591       -0.3804582466       -0.2056265072
 O          3.5189674070       -0.6300754113       -1.5482154849
 O          4.0052507157       -1.5205549405        0.6835243432
 C          5.5789160727        0.4051801292       -0.2552818011
 C          6.4997921207        0.1414326582        0.7409053556
 C          7.7269424338        0.7852122605        0.7069527801
 C          8.0094537079        1.6790784596       -0.3149028530
 C          7.0754350919        1.9327345795       -1.3086324454
 C          5.8472019441        1.2917314878       -1.2813161004
 H          5.0937127174        1.4506562387       -2.0352049370
 H          7.2996775392        2.6259823164       -2.1032521276
 H          8.9646475638        2.1793812427       -0.3389529475
 H          8.4564806440        0.5877844663        1.4757705572
 H          6.2390738522       -0.5667642038        1.5109122464
 H          3.6250584797        1.4522609104        1.0744171550
 H          1.9321714539        2.0575737815        2.5601640444
 H         -0.3155179754        1.5592201753        3.4484743522
 H         -1.6975990348       -0.1992913213        2.4063747378
 H         -1.3014921629       -2.5348712513        1.0811112700
 C         -0.5568942550       -2.4042245873       -0.9180098368
 C          0.4396875623       -3.5153368038       -0.7884351413
 C         -0.9517729329       -3.8074885176       -1.2621584908
 H         -1.1009062732       -4.0613920213       -2.3008288681
 H         -1.6278734535       -4.3112837650       -0.5865202275
 H          1.2518554984       -3.5629187281       -1.4987963919
 H          0.7158506281       -3.8249406895        0.2085961823
 H         -0.4332318969       -1.7040711466       -1.7369750904
