  62
        -98.94762678
 C         -1.8338035452       -1.3357217036       -0.1006014667
 C         -2.9343986033       -0.6112570084        0.4205123033
 C         -3.2483745160        0.6569475274       -0.2440770916
 C         -2.5010859158        1.0667520316       -1.2846900822
 C         -2.6796325517        2.3460511851       -2.0550108457
 C         -1.9891583175        3.5473449622       -1.3944566225
 C         -2.6923658627        4.0921996408       -0.1505961026
 H         -2.2466387490        5.0645363860        0.0688600293
 H         -3.7482619570        4.2575400283       -0.3700131679
 C         -2.5532596287        3.1997466490        1.0908344053
 H         -2.3009916034        3.8186195170        1.9558802803
 H         -1.7179046968        2.5085497850        0.9486822203
 C         -3.8129082890        2.4114106086        1.4530041085
 H         -3.5838519374        1.7836917467        2.3182909678
 H         -4.6067038918        3.1049837926        1.7410620311
 C         -4.3417279554        1.5026189138        0.3355929636
 H         -5.0896363196        0.8320249774        0.7666122539
 H         -4.8142135420        2.1006527092       -0.4434118504
 H         -1.9343190337        4.3465293734       -2.1376692773
 H         -0.9675341024        3.2602866097       -1.1307126014
 H         -2.2300813568        2.1859264668       -3.0373705736
 H         -3.7413259562        2.5573682970       -2.1861606158
 O         -1.4699133233        0.3338690208       -1.7733779332
 C         -1.0716444546       -0.8439278159       -1.1609646582
 O         -0.0514101766       -1.3509461521       -1.6665967178
 H         -0.1663362276       -0.4794785287        1.6968361997
 C          0.5392060368       -1.2695254221        1.4817708201
 C          0.0900703813       -2.4670539362        0.9370285534
 C          1.0210682724       -3.4639327699        0.6785166815
 C          2.3652369661       -3.2530127085        0.9384173172
 C          2.8122957156       -2.0393390897        1.4269670670
 C          1.8864895749       -1.0361376618        1.6899128887
 N          2.2778518492        0.2441611379        2.1407949945
 S          2.0490382077        1.4976313283        1.0455592363
 O          2.5130396915        2.6871229747        1.7283131210
 O          0.6830172869        1.5150906648        0.5935800354
 C          3.1737956991        1.1099967005       -0.2840060373
 C          2.8153672486        0.1664681721       -1.2256027480
 C          3.7403312640       -0.1841521115       -2.1984099945
 C          4.9947260565        0.4052110424       -2.2120304990
 C          5.3374614149        1.3518213431       -1.2577581696
 C          4.4219276176        1.7042678923       -0.2801538756
 H          4.6408284187        2.4358046840        0.4810999042
 H          6.3124914746        1.8117203537       -1.2708106590
 H          5.7078709675        0.1254291121       -2.9714175551
 H          3.4660751321       -0.9209482119       -2.9363464744
 H          1.8318303314       -0.2780907043       -1.2034410054
 H          3.2309422256        0.2809026896        2.4776247378
 H          3.8641412193       -1.8632219066        1.5959522295
 H          3.0771222796       -4.0375608156        0.7320894264
 H          0.6999225024       -4.4001520677        0.2523936543
 C         -1.3864221907       -2.5807326546        0.6467034157
 H         -1.9254840841       -2.5253468211        1.6083219401
 C         -1.7874023163       -3.8991512511        0.0033747406
 C         -2.9307575659       -3.9706446777       -0.9631415123
 C         -1.5297302905       -4.1949743130       -1.4427533008
 H         -1.2387203835       -5.1988255649       -1.7157844616
 H         -1.0570475548       -3.4244015389       -2.0303555344
 H         -3.4193998919       -3.0439851852       -1.2282690588
 H         -3.5998965707       -4.8160394035       -0.9040820407
 H         -1.6958345081       -4.7320031939        0.6939349138
 O         -3.6139752958       -1.0024191553        1.4085539641
