  62
        -98.94414277
 C         -2.1981187407       -0.7796081955       -0.0265362286
 C         -2.9055859935       -0.0904632402        0.9862130315
 C         -3.6947815047        1.0674533898        0.5454398329
 C         -3.6706308766        1.4233181322       -0.7523445712
 C         -4.4657332102        2.5487966774       -1.3468645938
 C         -5.8298582515        2.0581730299       -1.8519928180
 C         -6.5980325462        1.2140772994       -0.8350159722
 H         -6.0557623607        0.2813996416       -0.6635300290
 H         -7.5556564987        0.9500281727       -1.2887442282
 C         -6.8450750657        1.9102728172        0.5106377635
 H         -7.8820640788        1.7405075785        0.8078003820
 H         -6.7119472106        2.9871699706        0.4010722943
 C         -5.9662041476        1.4056669562        1.6566541883
 H         -6.0252999094        0.3156427931        1.7112232848
 H         -6.3673500895        1.8020083407        2.5932967748
 C         -4.4866334518        1.8048326330        1.5885677384
 H         -4.0287070391        1.5491098699        2.5489272232
 H         -4.4028451195        2.8843625351        1.4462507157
 H         -5.6699190635        1.4534088417       -2.7474946851
 H         -6.4272330430        2.9279464492       -2.1312116585
 H         -3.9036342743        2.9602455039       -2.1868980954
 H         -4.6021722519        3.3264901741       -0.5978243780
 O         -2.9446712906        0.7620350230       -1.6892997021
 C         -2.1977926851       -0.3593499595       -1.3569722118
 O         -1.5899255686       -0.8740306106       -2.3131056392
 O         -2.8728684582       -0.4239154729        2.2028090137
 C         -1.3794013671       -2.0008601417        0.3475899150
 C          0.0773985932       -1.7864918210        0.0155568507
 C          0.8711743946       -2.7521522429       -0.5889079785
 C          2.2066150685       -2.4984794891       -0.8512230928
 C          2.7791690594       -1.2854276340       -0.5176992056
 C          1.9987421535       -0.3169224806        0.1006021483
 C          0.6635243645       -0.5764740811        0.3673524352
 H          0.0578492888        0.1796252388        0.8531610846
 N          2.5687474242        0.9242651317        0.4359128714
 S          3.9944778772        0.9261930524        1.3238868682
 O          4.0940515884       -0.2433747800        2.1661113658
 O          4.0179914967        2.2066523793        1.9969975438
 C          5.2728546173        0.8981553403        0.0852404956
 C          5.2699257920        1.8901357054       -0.8757255251
 C          6.2623976091        1.8873238798       -1.8427265232
 C          7.2370319432        0.9004572763       -1.8304973370
 C          7.2283411766       -0.0861085569       -0.8564274380
 C          6.2375485587       -0.0898407103        0.1131770493
 H          6.1867247923       -0.8397230403        0.8864081362
 H          7.9871131028       -0.8519725031       -0.8485046543
 H          8.0078598541        0.9007823663       -2.5848829539
 H          6.2721047071        2.6527960508       -2.6018904059
 H          4.4967421843        2.6398224566       -0.8482402268
 H          1.9083832057        1.5802068297        0.8273586203
 H          3.8163011776       -1.0820881587       -0.7281630893
 H          2.8092630911       -3.2564094323       -1.3277773028
 H          0.4437793709       -3.7035957014       -0.8591517321
 H         -1.4660957041       -2.0870013106        1.4417673979
 C         -1.9692379254       -3.2439825695       -0.2855190968
 C         -1.8401518212       -4.5741062540        0.3928473055
 C         -3.1670790812       -3.8794886771        0.3521800960
 H         -3.9413770865       -4.2779903419       -0.2860648054
 H         -3.5395864232       -3.4318019045        1.2622973110
 H         -1.7057083929       -5.4539523794       -0.2180543101
 H         -1.3144061915       -4.6058697101        1.3352772913
 H         -1.9362431734       -3.2130650478       -1.3687978546
