  62
        -98.92864249
 C          2.5866537353        0.9112158844        0.6997557441
 C          2.9528442142       -0.3831527765        1.1426604591
 C          4.3097030402       -0.8595425119        0.8145338910
 C          5.1267124091       -0.0441142020        0.1227040600
 C          6.5311832159       -0.3077184431       -0.3524793612
 C          6.5800671347       -1.2372572353       -1.5750532880
 C          5.6725014037       -2.4611307945       -1.4863341689
 H          4.6402308236       -2.1328806137       -1.3510194056
 H          5.7230872612       -2.9818194150       -2.4463145035
 C          6.0358932068       -3.4622015332       -0.3921203471
 H          5.3771128430       -4.3260045495       -0.5126618828
 H          7.0619555280       -3.8038116561       -0.5455932524
 C          5.8993187900       -2.9606694342        1.0474594891
 H          6.7411009911       -2.3331598386        1.3278418988
 H          5.9346472433       -3.8369091424        1.7013923550
 C          4.5871973294       -2.2438078394        1.3494666813
 H          4.4743283438       -2.1651856087        2.4375112583
 H          3.7503713771       -2.8699617865        1.0194283763
 H          7.6129838270       -1.5566102575       -1.7239921293
 H          6.2755301255       -0.6596352110       -2.4513161570
 H          6.9518329346        0.6600165569       -0.6347805005
 H          7.1322397130       -0.7053907694        0.4598677525
 O          4.7328182705        1.1938593948       -0.2873772850
 C          3.4712740843        1.7066348862       -0.0289532292
 O          3.2912892216        2.8471089270       -0.4924692784
 O          2.1713207543       -1.1230710765        1.8011461798
 C          1.1898949976        1.3818739730        1.0610111521
 C          0.1974659157        1.0412858043       -0.0217926047
 C          0.4419870089        1.3569068242       -1.3541814590
 C         -0.4913911012        1.0506335203       -2.3281531845
 C         -1.6798143318        0.4227370250       -1.9987906466
 C         -1.9333142545        0.1003526248       -0.6722928578
 C         -0.9960411582        0.4139781995        0.3047739921
 H         -1.1900946780        0.1510666118        1.3362059002
 N         -3.1311668618       -0.5571105894       -0.3276063156
 S         -4.5662734983        0.1261030178       -0.9093079854
 O         -4.6921885830       -0.1925997881       -2.3083822565
 O         -4.6121703531        1.5321331551       -0.5723817625
 C         -5.7790132511       -0.7793927371        0.0305229811
 C         -6.1657434222       -2.0292227054       -0.4143210565
 C         -7.0925527131       -2.7456484157        0.3259285375
 C         -7.6135417914       -2.2041379146        1.4917839673
 C         -7.2166624757       -0.9478557887        1.9246388279
 C         -6.2892175340       -0.2262636120        1.1896408559
 H         -5.9608964811        0.7580543577        1.4832367724
 H         -7.6258697548       -0.5281279436        2.8294900591
 H         -8.3359649442       -2.7632134871        2.0652162191
 H         -7.4059015684       -3.7214605891       -0.0084072663
 H         -5.7418512735       -2.4058017818       -1.3304181854
 H         -3.2004967216       -0.7002629261        0.6717537340
 H         -2.4152114725        0.1877351006       -2.7507845261
 H         -0.2916744177        1.3045959168       -3.3586765908
 H          1.3652849171        1.8517646731       -1.6162363057
 H          0.9198178864        0.7886240094        1.9494571092
 C          1.1358336416        2.8479422564        1.4676273198
 C          0.5340041084        3.9261331391        0.6232366456
 C         -0.1685374241        3.4735894601        1.8658551941
 H         -0.1881358199        4.1313556001        2.7214690077
 H         -1.0646185272        2.8840021955        1.7393159232
 H          1.0241544837        4.8875119365        0.6176781408
 H          0.1085493313        3.6535755751       -0.3297467433
 H          2.0063428990        3.1323379558        2.0504873697
