  62
        -98.93069600
 C          2.4485349195        1.3042644001       -0.0649780393
 C          2.3223877196        0.0375447102       -0.6792166096
 C          3.3057064695       -0.9928530898       -0.2856668796
 C          4.2595720794       -0.6872539400        0.6110800905
 C          5.3524077394       -1.5620561101        1.1715469105
 C          6.1054488495       -2.4554513999        0.1737342605
 C          5.7864637495       -3.9436355299        0.3278302102
 H          6.6212107495       -4.5228051999       -0.0732679998
 H          5.7124736194       -4.1741322701        1.3926651901
 C          4.5165448996       -4.4133663198       -0.3796712400
 H          4.3300568795       -5.4452255099       -0.0729026802
 H          4.6858321497       -4.4211178096       -1.4586241200
 C          3.2640189095       -3.5826019799       -0.0939964400
 H          2.3936944996       -4.2100580198       -0.2975939402
 H          3.2189171594       -3.3093818800        0.9596060400
 C          3.1492527796       -2.3248150797       -0.9685097299
 H          3.8603455997       -2.3806067196       -1.7976162198
 H          2.1565356897       -2.2863685197       -1.4272250000
 H          7.1740227695       -2.3214339999        0.3497095006
 H          5.9036739796       -2.1269540997       -0.8445509395
 H          6.0498716693       -0.8695819001        1.6483685007
 H          4.9287460293       -2.1749243302        1.9711846304
 O          4.3405072194        0.5466279999        1.1857317708
 C          3.4567005294        1.5574855200        0.8708544108
 O          3.6696730193        2.6280114799        1.4741444610
 H         -0.3622837504        0.5649255102       -0.6201426998
 C         -0.6510321905        1.3140881001        0.1025573203
 C          0.2150650195        2.3651196100        0.3674236006
 C         -0.1655610407        3.3175090399        1.3051241207
 C         -1.3814082307        3.2150639898        1.9584558805
 C         -2.2377895407        2.1598996498        1.6991076102
 C         -1.8652065506        1.2012791000        0.7656230001
 N         -2.7024315606        0.0912512500        0.5127002999
 S         -4.2720177605        0.3909752701       -0.0329176203
 O         -4.2436553603        0.9555564603       -1.3660970402
 O         -4.9711292806        1.1612033999        0.9633208698
 C         -4.9147291305       -1.2691929999       -0.0813475306
 C         -4.9583954703       -1.9497329797       -1.2825388807
 C         -5.4325028203       -3.2522034297       -1.2979615910
 C         -5.8490076305       -3.8488326999       -0.1176611412
 C         -5.7985645906       -3.1523690401        1.0808425490
 C         -5.3263301506       -1.8499452801        1.1027093392
 H         -5.2753165807       -1.2684742802        2.0082467593
 H         -6.1245820907       -3.6198599302        1.9959667388
 H         -6.2168192105       -4.8626688199       -0.1326153114
 H         -5.4744706402       -3.7953494196       -2.2283938511
 H         -4.6311471802       -1.4443112396       -2.1771821506
 H         -2.2595370105       -0.5420095999       -0.1420056902
 H         -3.1898355808        2.0769479097        2.1966418801
 H         -1.6650349308        3.9636591097        2.6829522506
 H          0.5034337593        4.1365260599        1.5273422609
 C          1.5328541495        2.4823115302       -0.3620125493
 H          2.0541154195        3.3634965901        0.0354525709
 C          1.3040187097        2.6952692804       -1.8467000193
 C          0.8807722898        4.0487701605       -2.3283836791
 C          2.2619018298        3.5459724105       -2.6222385590
 H          2.5039344899        3.2577583207       -3.6341502190
 H          3.0894034597        3.9844313905       -2.0832411088
 H          0.7718934597        4.8303259504       -1.5915440390
 H          0.1693889699        4.1075491406       -3.1379449592
 H          0.8897422698        1.8305427305       -2.3478672094
 O          1.4322714197       -0.2561706896       -1.5240707997
