  62
        -98.94848999
 C          2.3528258447        0.6339790269        0.1718318677
 C          1.5432173037        0.0223297549       -0.8147859437
 C          1.6938090942       -1.4322390306       -0.9647938282
 C          2.5518376555       -2.0934456466       -0.1685372115
 C          2.8066072633       -3.5719651366       -0.2144697737
 C          1.8986030190       -4.3390051441        0.7552407090
 C          0.4176699703       -3.9768875322        0.6401305275
 H         -0.1286830676       -4.6236741677        1.3311135445
 H          0.2632226675       -2.9508731751        0.9835707800
 C         -0.1679578949       -4.1273689992       -0.7708025465
 H         -1.1425491619       -4.6137600946       -0.6908003141
 H          0.4710158887       -4.7743907934       -1.3738326661
 C         -0.3921597250       -2.7999169658       -1.4974367577
 H         -1.0488298977       -2.9828615638       -2.3525210606
 H         -0.9092308955       -2.1122685447       -0.8235994478
 C          0.8701104834       -2.1059180794       -2.0261385841
 H          1.4755103637       -2.8207117622       -2.5882529244
 H          0.5528093617       -1.3120315226       -2.7085644699
 H          2.0278675562       -5.4079604942        0.5726187754
 H          2.2227888241       -4.1273133206        1.7769616653
 H          3.8474332363       -3.7463787415        0.0654071532
 H          2.6501992642       -3.9276853104       -1.2312605891
 O          3.2840991203       -1.4804963875        0.7973714636
 C          3.1810855653       -0.1156259816        1.0093375505
 O          3.8736600482        0.3090519194        1.9572772575
 O          0.7424918136        0.6534546602       -1.5532379713
 C          2.2809804483        2.1279714419        0.4435180538
 C          0.8381158341        2.5716763398        0.4449100652
 C          0.3467020639        3.6368171373       -0.2985390023
 C         -0.9985914469        3.9616946132       -0.2538135059
 C         -1.8832657835        3.2180438390        0.5049622765
 C         -1.4001786173        2.1495259688        1.2518647820
 C         -0.0468496476        1.8593510108        1.2457052789
 H          0.3154341459        1.0282428227        1.8341841096
 N         -2.2611367505        1.3312473168        2.0147447982
 S         -2.3932950275       -0.2714464686        1.5369218891
 O         -3.3147848936       -0.8711962021        2.4788226501
 O         -1.0859212512       -0.8683646302        1.4581837047
 C         -3.1695305530       -0.1973553348       -0.0687081997
 C         -2.4357847723        0.2159796534       -1.1629537631
 C         -3.0759875483        0.3213111437       -2.3890236157
 C         -4.4238727326        0.0188376208       -2.5003944289
 C         -5.1457618814       -0.3923617273       -1.3897813774
 C         -4.5155069670       -0.4974273851       -0.1609315048
 H         -5.0330997043       -0.8149247110        0.7299529527
 H         -6.1939292621       -0.6292669436       -1.4769357281
 H         -4.9133484079        0.1033958503       -3.4578794219
 H         -2.5072342070        0.6417253231       -3.2471332634
 H         -1.3846213125        0.4412158585       -1.0644123351
 H         -3.1900117523        1.7150559969        2.1267882258
 H         -2.9373281198        3.4521572675        0.5155328274
 H         -1.3660430919        4.7921374990       -0.8371495610
 H          1.0108412730        4.2008696350       -0.9323499203
 H          2.6691618098        2.2483867579        1.4691786449
 C          3.1718030238        2.9675902123       -0.4611208675
 C          4.3833597930        2.3788716937       -1.1186703693
 C          3.2001112641        2.7754354018       -1.9466682371
 H          3.2873571685        3.6490331567       -2.5759150514
 H          2.5761577643        1.9981774430       -2.3578677539
 H          5.2781349313        2.9808892167       -1.1724470226
 H          4.5754932987        1.3264476963       -0.9662848266
 H          3.2761951432        3.9849538727       -0.0968380400
