  62
        -98.93989378
 C         -2.6410369794       -0.2100308893        0.5456361692
 C         -2.1669792825        0.2389041612       -0.7133387309
 C         -1.9894186970        1.6927964740       -0.8525857392
 C         -2.2567667172        2.4973739038        0.1905653225
 C         -2.1218138605        3.9921960714        0.1837694283
 C         -0.7394629865        4.4455439685        0.6698403581
 C          0.4296402470        3.7329218656       -0.0109151153
 H          1.3478327175        4.1891529836        0.3669382106
 H          0.4503300420        2.6840277248        0.2936793978
 C          0.4218582127        3.8083824276       -1.5437087939
 H         -0.2134800860        4.6320360796       -1.8738448773
 H          1.4370524601        4.0216694845       -1.8853035561
 C         -0.0151588978        2.5177717884       -2.2408388032
 H          0.5335794321        1.6687971778       -1.8214201045
 H          0.2605603068        2.5911605581       -3.2969353814
 C         -1.5159325133        2.2031863216       -2.1836744893
 H         -2.0885225407        3.0832136748       -2.4869528619
 H         -1.7125066086        1.3995129143       -2.8997009666
 H         -0.6716824550        4.2604433438        1.7443540333
 H         -0.6560105474        5.5216077426        0.5036459189
 H         -2.8821992322        4.4046829830        0.8498197912
 H         -2.3001033383        4.3582266689       -0.8256666416
 O         -2.6714674723        2.0281135305        1.3959253286
 C         -2.8391424733        0.6702911083        1.6107532952
 O         -3.1660737825        0.3747731288        2.7791356610
 O         -1.9221955157       -0.5227203498       -1.6842031813
 C         -2.8208583643       -1.6911608079        0.8462994229
 C         -1.6006248376       -2.4257010015        0.3494223284
 C         -1.6219996868       -3.4618599350       -0.5739554571
 C         -0.4396237452       -4.0103323551       -1.0416886797
 C          0.7852969205       -3.5332546353       -0.6099525589
 C          0.8127969227       -2.5175285959        0.3324763423
 C         -0.3683012392       -1.9870887219        0.8179870170
 H         -0.3335717916       -1.1719146145        1.5325116984
 N          2.0700675671       -1.9635260730        0.7340501676
 S          2.2955344412       -0.4746013020       -0.0463511232
 O          1.5447648628        0.5626624582        0.6312474796
 O          2.0375162570       -0.6596876225       -1.4505150079
 C          4.0421189117       -0.2192406623        0.2071742159
 C          4.4893160951        0.8074143857        1.0145209748
 C          5.8537550649        0.9616790470        1.2082545624
 C          6.7406260799        0.0886894461        0.5976411025
 C          6.2754430713       -0.9390125068       -0.2099698478
 C          4.9137078585       -1.0967296277       -0.4088065248
 H          4.5038207471       -1.8744666391       -1.0312792167
 H          6.9683639976       -1.6155866964       -0.6835769889
 H          7.8012279666        0.2104797368        0.7512393142
 H          6.2173064091        1.7605842091        1.8343876850
 H          3.7624449474        1.4628842042        1.4672403377
 H          2.0780419385       -1.7675264519        1.7280685040
 H          1.7117000183       -3.9220883916       -0.9994936027
 H         -0.4743506922       -4.8033475796       -1.7732070485
 H         -2.5650708163       -3.8130212112       -0.9602666565
 H         -2.8307982043       -1.7559311971        1.9475070737
 C         -4.1349997663       -2.2860065275        0.3660674692
 C         -5.3597890936       -1.4324536458        0.2304405250
 C         -4.7018386616       -1.9983767051       -0.9902531408
 H         -5.2024324553       -2.7994558996       -1.5143218054
 H         -4.1452163232       -1.3358118189       -1.6333324249
 H         -6.3079656935       -1.8426646841        0.5439482732
 H         -5.2542259945       -0.3749128665        0.4259778834
 H         -4.2901055001       -3.2870152415        0.7569269615
