  62
        -98.93904105
 C          2.1183275676        0.8795703818        0.3640461562
 C          2.7864196389        0.0252648111        1.2773803955
 C          3.2620178482       -1.2568896651        0.7421074529
 C          2.9834031117       -1.5773368584       -0.5343834523
 C          3.4361281084       -2.8319533757       -1.2221915043
 C          4.7881057085       -2.6283070529       -1.9203181362
 C          5.8499661993       -1.9799080947       -1.0319922450
 H          6.7680960685       -1.9128010884       -1.6194172554
 H          5.5427211606       -0.9577974904       -0.7988790892
 C          6.1318807326       -2.7349691974        0.2745178191
 H          5.7611684972       -3.7576934845        0.1980279114
 H          7.2125957678       -2.7914174027        0.4198234252
 C          5.5480269540       -2.0771619918        1.5261968732
 H          5.9851989297       -2.5642297946        2.4017281179
 H          5.8409321290       -1.0246572792        1.5573483323
 C          4.0233026347       -2.1582629300        1.6732388626
 H          3.7680124431       -1.8271017070        2.6842240194
 H          3.6967223297       -3.1939811297        1.5584847178
 H          5.1452026387       -3.5990070372       -2.2689105306
 H          4.6336111759       -1.9894521318       -2.7929959478
 H          2.6861798803       -3.1022919237       -1.9678454035
 H          3.5101024140       -3.6337933355       -0.4898240279
 O          2.2819345205       -0.7636556312       -1.3632110078
 C          1.8320230600        0.4823995190       -0.9437755406
 O          1.2047399200        1.1098294198       -1.8172246829
 O          2.9658984303        0.3189348718        2.4900673788
 C          1.6078607287        2.2099795747        0.8907309650
 C          0.1630678461        2.3884731668        0.4958861492
 C         -0.3254630980        3.4825722619       -0.2043911449
 C         -1.6610025432        3.5456024028       -0.5647823512
 C         -2.5349349563        2.5252244869       -0.2393298654
 C         -2.0558352562        1.4273168984        0.4615739763
 C         -0.7240763949        1.3738143459        0.8350896377
 H         -0.3534936436        0.5085168860        1.3737940321
 N         -2.9396573701        0.3668179527        0.7799700334
 S         -3.3976089672       -0.6199688966       -0.5175925506
 O         -2.5572300972       -1.8012054927       -0.5307946818
 O         -3.4443828120        0.1622910729       -1.7249650785
 C         -5.0510145831       -1.0725003560       -0.0277894340
 C         -6.0638755568       -0.1528199889       -0.2182154612
 C         -7.3479997492       -0.4748595994        0.1899023464
 C         -7.5964291715       -1.7046908870        0.7813182788
 C         -6.5696640151       -2.6177844915        0.9655510140
 C         -5.2825725549       -2.3002551382        0.5601023877
 H         -4.4554183608       -2.9818103243        0.6764648002
 H         -6.7654225566       -3.5742576487        1.4230176737
 H         -8.5968134441       -1.9538182683        1.0982814822
 H         -8.1490546930        0.2322084734        0.0464593407
 H         -5.8258176192        0.7861164760       -0.6898753811
 H         -2.5431569106       -0.2419101900        1.4848550601
 H         -3.5689756338        2.5543978364       -0.5400490006
 H         -2.0227100425        4.3991712949       -1.1178655937
 H          0.3447234433        4.2743443127       -0.4963639818
 H          1.6468688212        2.0982696763        1.9879367450
 C          2.4864369579        3.4034517129        0.5490760268
 C          3.9479134973        3.2297311788        0.2660126170
 C          3.0159007346        3.6396600934       -0.8324858627
 H          3.0682837886        4.6563790967       -1.1937452693
 H          2.7627291866        2.9184187238       -1.5935305157
 H          4.6376014421        3.9614429151        0.6591224127
 H          4.3388362256        2.2224958777        0.2546070470
 H          2.2125000275        4.2840872344        1.1217882714
