  62
        -98.93138237
 C          2.3581264144        0.7194101667        0.0907168532
 C          3.5445641548        0.7401845775        0.8571589341
 C          4.7438254901        0.1450748579        0.2387942585
 C          4.6517860784       -0.3635523636       -1.0033191218
 C          5.7214684718       -1.0272072836       -1.8336190222
 C          7.1051172610       -0.3590718387       -1.8404927948
 C          8.1704882920       -1.1582985995       -1.0879759332
 H          8.0203876361       -2.2196035970       -1.2966945944
 H          9.1532376730       -0.8854747208       -1.4789638981
 C          8.1989759029       -0.9405621176        0.4238623632
 H          8.5944360767        0.0546523839        0.6382823815
 H          8.8967843758       -1.6657615733        0.8491717481
 C          6.8501346044       -1.0854947812        1.1313112884
 H          7.0466898330       -1.3122078392        2.1814734136
 H          6.2931540232       -1.9285518418        0.7237903357
 C          5.9896659448        0.1860520602        1.0812910185
 H          5.6334281228        0.4277531055        2.0876401359
 H          6.6001751850        1.0375791094        0.7672448477
 H          7.0320192833        0.6495774318       -1.4369596948
 H          7.4249796170       -0.2685064418       -2.8798112090
 H          5.3162311048       -1.0522952914       -2.8477243843
 H          5.8134540443       -2.0673340763       -1.5108050231
 O          3.4824229989       -0.3622860724       -1.7059598721
 C          2.3125925240        0.1647721462       -1.1871701880
 O          1.3299581721        0.0862078103       -1.9479399046
 O          3.6013516828        1.2298567275        2.0183845860
 C          1.0870138222        1.3005706500        0.6826055994
 C          0.0317740689        0.2254681307        0.7716878359
 C          0.3418132585       -0.9564827022        1.4403846628
 C         -0.5847851116       -1.9752702899        1.5432248992
 C         -1.8423890887       -1.8410470314        0.9808260363
 C         -2.1664152645       -0.6638898109        0.3220339124
 C         -1.2352660307        0.3652420399        0.2301295443
 H         -1.5027033183        1.2734690664       -0.2869593495
 N         -3.4343796731       -0.5230735357       -0.2674794058
 S         -4.7711782632       -1.1021641027        0.5851157107
 O         -4.6988611426       -0.6818781687        1.9667944941
 O         -4.8768460808       -2.5230667376        0.3657206310
 C         -6.0981844153       -0.2603709881       -0.2547386399
 C         -6.5755597721       -0.7882955382       -1.4393965661
 C         -7.5897719682       -0.1217114829       -2.1082650607
 C         -8.1058449787        1.0547608755       -1.5852058623
 C         -7.6169782296        1.5717152890       -0.3948557496
 C         -6.6018942621        0.9107798425        0.2788501404
 H         -6.1977648551        1.2708028577        1.2114295500
 H         -8.0224263112        2.4848217811        0.0103782206
 H         -8.8960409344        1.5707727276       -2.1073267496
 H         -7.9743234966       -0.5212271579       -3.0327869082
 H         -6.1501461046       -1.7090640351       -1.8030363179
 H         -3.5934785108        0.4109380850       -0.6191939800
 H         -2.5748151333       -2.6291908929        1.0502781208
 H         -0.3278121744       -2.8861197250        2.0636074475
 H          1.3255906633       -1.0659079772        1.8768069479
 H          1.3528565009        1.6014016549        1.7067418279
 C          0.6552571386        2.5291853247       -0.0890757909
 C         -0.1718680362        3.5856345197        0.5793402893
 C          1.2668925773        3.8524661192        0.2566717112
 H          1.4986048879        4.5379624806       -0.5446106833
 H          1.9803768918        3.8718762782        1.0674003635
 H         -0.9273648944        4.0943008777       -0.0004159750
 H         -0.4392849640        3.4294496531        1.6135711478
 H          0.4754082459        2.3207469279       -1.1378730661
