  62
        -98.93973305
 C          1.3618678371        1.4372579891       -0.2738322213
 C          2.5859393151        1.3445087753        0.4339141802
 C          3.6141897466        0.4491543571       -0.1192202883
 C          3.3544597752       -0.2248241265       -1.2525656668
 C          4.2550326150       -1.1567687392       -2.0254382476
 C          5.1192387446       -2.1378489465       -1.2242541081
 C          4.4626823906       -2.6819281733        0.0529840090
 H          3.4016321426       -2.4234954739        0.0690741470
 H          4.5279582512       -3.7718070570        0.0496968315
 C          5.1338389197       -2.1747400588        1.3316567042
 H          6.2171571650       -2.2166553976        1.1984604195
 H          4.8780576172       -2.8494192148        2.1522409431
 C          4.7368055664       -0.7642889228        1.7649918780
 H          3.6979095320       -0.7622062397        2.1072173344
 H          5.3564723703       -0.4889910780        2.6218864914
 C          4.8748118442        0.3235639079        0.6872392708
 H          5.0024413283        1.2837561917        1.1946455445
 H          5.7423225968        0.1464024095        0.0563094564
 H          6.0651481098       -1.6646275798       -0.9646524315
 H          5.3555646573       -2.9669345755       -1.8936285660
 H          3.5847293825       -1.7154665651       -2.6837065237
 H          4.9026461256       -0.5496332701       -2.6653119335
 O          2.1674291422       -0.1027824978       -1.9083443389
 C          1.1395506865        0.7013037422       -1.4377407660
 O          0.1180568906        0.6691709925       -2.1507127647
 H         -0.3832136399       -0.3129300852        0.3189269319
 C         -0.9162520025        0.2579571982        1.0627452492
 C         -0.6771414659        1.6149263293        1.2053737206
 C         -1.3717537183        2.3119841809        2.1900544602
 C         -2.2782268936        1.6635501805        3.0070029999
 C         -2.5206954619        0.3097302155        2.8536665137
 C         -1.8324087385       -0.3970685534        1.8756039926
 N         -2.0408948877       -1.7751393077        1.7048025347
 S         -2.1969231322       -2.4015654010        0.1575754978
 O         -2.8074754460       -3.6984453984        0.3657835231
 O         -0.9208481628       -2.4090775672       -0.5098668025
 C         -3.3679433144       -1.3115782665       -0.6292012795
 C         -4.7014497631       -1.4952251627       -0.3127873884
 C         -5.6437033394       -0.6251501377       -0.8337380832
 C         -5.2370545917        0.4175162956       -1.6531937012
 C         -3.8969272613        0.5853861407       -1.9621255387
 C         -2.9459927420       -0.2844922415       -1.4476940189
 H         -1.8981739803       -0.1708092607       -1.6800382926
 H         -3.5756360923        1.3915977010       -2.6025490191
 H         -5.9677877883        1.1011023072       -2.0558666807
 H         -6.6872573090       -0.7588424023       -0.5984997017
 H         -4.9734439341       -2.3251914795        0.3191810463
 H         -2.7413076784       -2.1673328216        2.3178922124
 H         -3.2263931258       -0.2003353529        3.4911118902
 H         -2.8040197262        2.2155182044        3.7707082807
 H         -1.1867729734        3.3667769867        2.3201192205
 C          0.3032529462        2.3472167656        0.3148220293
 H          0.8552885603        3.0544979402        0.9509986911
 C         -0.4583094838        3.1385303165       -0.7332571688
 C         -0.8952747440        4.5433863759       -0.4514564674
 C          0.2161352124        4.2852154306       -1.4228695906
 H          0.0359005478        4.4282095822       -2.4774576864
 H          1.2253111558        4.5232191048       -1.1186253413
 H         -1.8489797091        4.8703002988       -0.8357556154
 H         -0.6318221008        4.9759718456        0.5014888741
 H         -1.1113219074        2.5197959453       -1.3352802870
 O          2.8175393826        2.0031020965        1.4843969708
