  62
        -98.94608778
 C          0.9797588918        1.6450028176        0.6217067993
 C          1.7492126534        1.5449481898       -0.5621765992
 C          2.8702636228        0.5953776827       -0.5170894461
 C          3.0868231208       -0.1179652201        0.6029530122
 C          4.1948019947       -1.1149956660        0.7806959256
 C          3.7544927179       -2.5323071138        0.3917592128
 C          3.0359555708       -2.6090753597       -0.9547291968
 H          2.7908567634       -3.6574727486       -1.1340543579
 H          2.0901535292       -2.0661843353       -0.8867617356
 C          3.8504150197       -2.0692689096       -2.1386725260
 H          3.7551137945       -2.7649341075       -2.9748640839
 H          4.9073148545       -2.0256645266       -1.8727494851
 C          3.4019123290       -0.6986873065       -2.6488541662
 H          3.8871173316       -0.5193206025       -3.6120731069
 H          2.3227683095       -0.7057845686       -2.8227205749
 C          3.7351872590        0.4923353701       -1.7415608412
 H          4.7920983818        0.4632042495       -1.4683474316
 H          3.5532981517        1.4072391046       -2.3130777576
 H          3.0775197249       -2.9033153799        1.1624562063
 H          4.6373648867       -3.1737559646        0.3728827052
 H          5.0452070762       -0.8079604789        0.1746184542
 H          4.4916443473       -1.1112356774        1.8309936902
 O          2.2953683116       -0.0288199691        1.7031970593
 C          1.2242610162        0.8491331872        1.7398950151
 O          0.5769049796        0.8274302583        2.8072751909
 H         -1.2808504607        0.2592797326        0.3058100508
 C         -1.6768662855        0.9808337897       -0.3936512400
 C         -1.2061375001        2.2879064100       -0.3571815477
 C         -1.7210536028        3.2058226173       -1.2622788129
 C         -2.6771537550        2.8150568996       -2.1840890770
 C         -3.1588663730        1.5195917820       -2.2014624840
 C         -2.6574891590        0.5947389974       -1.2914221922
 N         -3.1256875115       -0.7276543519       -1.2726018417
 S         -3.3696291877       -1.5137985553        0.1874303210
 O         -4.4254575946       -2.4648272444       -0.0920694896
 O         -3.6224123152       -0.5789560485        1.2575321338
 C         -1.8673488887       -2.4245669219        0.4723138792
 C         -1.0470837829       -2.1129217321        1.5374279520
 C          0.0871396542       -2.8795540605        1.7564228997
 C          0.3755953395       -3.9428654693        0.9156387702
 C         -0.4545747643       -4.2390914502       -0.1551627840
 C         -1.5868402531       -3.4749015775       -0.3806376357
 H         -2.2678164358       -3.6820560955       -1.1892318742
 H         -0.2236692681       -5.0644732038       -0.8089374545
 H          1.2498750631       -4.5476736255        1.0982781650
 H          0.7344542350       -2.6310776270        2.5832695693
 H         -1.2950478664       -1.2814522280        2.1805218890
 H         -3.8713859324       -0.9206977315       -1.9255253959
 H         -3.9157650584        1.2216945094       -2.9111600690
 H         -3.0622666590        3.5344627111       -2.8908909254
 H         -1.3708044653        4.2246605095       -1.2523558804
 C         -0.1735467377        2.6295153249        0.6895458443
 H         -0.6420689055        2.4843496711        1.6747834408
 C          0.3431819192        4.0501674840        0.6005625066
 C         -0.4254291393        5.1714437658        1.2302953189
 C          0.8624192883        4.7093790495        1.8414510867
 H          1.7303590802        5.3467261687        1.7630678477
 H          0.8198767303        4.1412988266        2.7597404659
 H         -0.4406032613        6.1302901514        0.7345065687
 H         -1.3450162162        4.9228994686        1.7387142358
 H          0.8699884123        4.2453328688       -0.3261917079
 O          1.5238157968        2.2231526206       -1.5980567640
