  62
        -98.93363694
 C          2.2011756108       -0.6223697572       -0.0477159683
 C          3.4814704290       -1.1229920938       -0.3831492631
 C          4.5649796120       -0.1321142057       -0.4602141679
 C          4.2826941401        1.1641762683       -0.2354098846
 C          5.2878230913        2.2802539519       -0.1969042756
 C          6.0495554888        2.2548614004        1.1438596379
 C          7.5400563930        1.9385668301        1.0169856582
 H          8.0598033038        2.8238605784        0.6447231220
 H          7.9167104292        1.7331973846        2.0212584296
 C          7.8983334347        0.7650241555        0.1002185003
 H          8.9358210188        0.5000835557        0.3146083772
 H          7.8691965211        1.0903534289       -0.9406781079
 C          7.0292539474       -0.4906873397        0.2466899214
 H          6.5733315320       -0.5300657687        1.2361916926
 H          7.6779459987       -1.3646992280        0.1605337639
 C          5.9329420865       -0.6396810909       -0.8248322985
 H          6.2629210899       -0.1658182351       -1.7533479653
 H          5.7890692774       -1.7041872057       -1.0318762770
 H          5.9457835439        3.2214449979        1.6392114010
 H          5.5729539214        1.5176013455        1.7934619666
 H          5.9780493569        2.1831425686       -1.0318924351
 H          4.7378777782        3.2153887907       -0.3041400912
 O          3.0341347728        1.6092892569        0.0657050400
 C          1.9628983859        0.7338953241        0.1698448048
 O          0.8793898955        1.2807662023        0.4529651911
 H         -1.6356799599       -1.0396558999        0.5349237143
 C         -1.3533481165       -0.9521451042       -0.4997073614
 C         -0.0498464388       -1.1983801907       -0.8995159809
 C          0.2713510956       -1.0744249213       -2.2494617161
 C         -0.6843016665       -0.6931274946       -3.1698944291
 C         -1.9782180210       -0.4191823540       -2.7618515123
 C         -2.3128642667       -0.5505061592       -1.4199292060
 N         -3.6372846988       -0.3222044386       -0.9952311292
 S         -3.9313056341        0.5886988959        0.3976039325
 O         -3.4272453440        1.9348978347        0.2339417349
 O         -3.4760331597       -0.1403063765        1.5525995964
 C         -5.7155420257        0.6029648758        0.3691394200
 C         -6.3837493718        1.7143157295       -0.1080291860
 C         -7.7694325717        1.7002495978       -0.1437571800
 C         -8.4595959895        0.5800297693        0.2937356394
 C         -7.7750896807       -0.5279975318        0.7709845133
 C         -6.3899929603       -0.5197225821        0.8100679113
 H         -5.8159062399       -1.3528119272        1.1803873492
 H         -8.3150930082       -1.3961180862        1.1130319560
 H         -9.5377575839        0.5717030901        0.2656079063
 H         -8.3038593548        2.5616452715       -0.5108372140
 H         -5.8055823708        2.5663501632       -0.4281381566
 H         -4.2079839945        0.0450597951       -1.7467939295
 H         -2.7229404553       -0.1068393387       -3.4786859344
 H         -0.4197738840       -0.5974066974       -4.2124051889
 H          1.2873520460       -1.2734754968       -2.5633182116
 C          1.0395036133       -1.5932845147        0.0659261457
 H          1.4413974119       -2.5685028999       -0.2470468184
 C          0.5743900578       -1.6975718956        1.5024636635
 C         -0.1032876609       -2.9443921791        1.9838253788
 C          1.2897047435       -2.6264221609        2.4352875963
 H          1.4439400008       -2.3121794620        3.4567065190
 H          2.1051625658       -3.2058420623        2.0275018350
 H         -0.2349173724       -3.7454558583        1.2723088312
 H         -0.9112766737       -2.8459796050        2.6930461606
 H          0.2375748048       -0.7472651513        1.9040050473
 O          3.7059928293       -2.3419548939       -0.6128833165
