  62
        -98.94313054
 C         -1.8448347613       -0.6311426197       -0.0119588400
 C         -2.3720099611        0.6217396002        0.3958884906
 C         -3.7033312512        0.9687387406       -0.1166988191
 C         -4.3309486914        0.1126871109       -0.9432324093
 C         -5.7127440615        0.3079229013       -1.4950049290
 C         -6.7696154614       -0.3216839989       -0.5765453691
 C         -6.6180392011        0.0638504905        0.8949395011
 H         -5.6850240811       -0.3546816697        1.2791307808
 H         -7.4337216311       -0.4136112596        1.4421069210
 C         -6.6406610709        1.5755818704        1.1606950216
 H         -7.2870376007        1.7710340902        2.0189317618
 H         -7.0722618710        2.0962307408        0.3051132119
 C         -5.2746663908        2.1831849102        1.4855438816
 H         -4.7974301207        1.6082314698        2.2832704913
 H         -5.4339382006        3.1965082800        1.8640362020
 C         -4.2926134509        2.2832440705        0.3113454315
 H         -3.4484223808        2.8995078502        0.6350280816
 H         -4.7763333110        2.7812615308       -0.5316063782
 H         -6.6926562815       -1.4085017989       -0.6548720795
 H         -7.7575725014       -0.0241308886       -0.9325373888
 H         -5.7631690017       -0.1710878083       -2.4741542292
 H         -5.9047686914        1.3727146514       -1.6118051786
 O         -3.7877496016       -1.0664920390       -1.3311827898
 C         -2.5413528016       -1.4765991693       -0.8765005202
 O         -2.1970434018       -2.5905954592       -1.3131611806
 O         -1.7589913109        1.4112904598        1.1646883608
 C         -0.4720044813       -1.0099662401        0.5219159997
 C          0.5747847486       -0.7875944898       -0.5433357404
 C          0.7656669583       -1.6820333995       -1.5920812708
 C          1.7104021781       -1.4242205892       -2.5680904008
 C          2.4962153183       -0.2865122193       -2.5094509905
 C          2.3135634886        0.6137603103       -1.4674327002
 C          1.3545535087        0.3604839901       -0.4963945601
 H          1.2102068389        1.0806679498        0.2956151402
 N          3.1016501887        1.7769993002       -1.3727467499
 S          3.9129152290        2.0481114495        0.0680033201
 O          2.9907407392        2.4683111093        1.0906358904
 O          4.9633932191        2.9829857595       -0.2708739197
 C          4.6110408789        0.4569813293        0.4693522294
 C          3.9458273489       -0.3805888809        1.3412405592
 C          4.4549897888       -1.6491590111        1.5700342286
 C          5.6126773286       -2.0557887110        0.9252569583
 C          6.2733831886       -1.2001527207        0.0567971785
 C          5.7665156887        0.0670974994       -0.1794529809
 H          6.2527746587        0.7660194296       -0.8406859008
 H          7.1765957785       -1.5180184707       -0.4386079617
 H          6.0023904785       -3.0454430311        1.1037201279
 H          3.9431768788       -2.3157932113        2.2456568585
 H          3.0508161490       -0.0238841010        1.8248175795
 H          3.7320658486        1.9043668404       -2.1521300799
 H          3.2378316082       -0.0901524691       -3.2689996106
 H          1.8418874279       -2.1219009089       -3.3810966911
 H          0.1446868082       -2.5609120494       -1.6556352910
 H         -0.2770043711       -0.2922766904        1.3308218699
 C         -0.4258828014       -2.4089410103        1.1013799791
 C          0.6338163587       -2.7445396008        2.1055879289
 C         -0.7945645712       -2.6123243908        2.5391843791
 H         -1.3399680912       -3.5040151408        2.8095763489
 H         -1.0760489110       -1.7398900310        3.1114808095
 H          1.0742934586       -3.7290484309        2.0802418484
 H          1.3175558189       -1.9579310010        2.3865303690
 H         -0.7260263816       -3.1794842400        0.4042229389
