  62
        -98.93357238
 C         -2.0537600080       -0.9920334823       -0.3518557073
 C         -2.3864910983        0.2318394325        0.2798711523
 C         -3.7607064061        0.3234486867        0.7970464398
 C         -4.6002613891       -0.7195994767        0.6757632509
 C         -6.0213350921       -0.7786276049        1.1667764922
 C         -7.0413079049       -0.1606702689        0.2006068419
 C         -7.0148299013        1.3659437069        0.1152396164
 H         -7.9143854934        1.6723057676       -0.4224175305
 H         -7.0770686474        1.7862915332        1.1194734506
 C         -5.7886363323        1.9388593960       -0.6093123427
 H         -5.3085374513        1.1506002291       -1.1938303570
 H         -6.1090191005        2.7090779414       -1.3146304554
 C         -4.7468122162        2.5741050863        0.3116916280
 H         -5.1770225926        3.4496402104        0.8032383605
 H         -3.9071766686        2.9112729446       -0.3016851322
 C         -4.1965672005        1.6299246223        1.3885909392
 H         -3.3187295853        2.0991373510        1.8397268728
 H         -4.9445543888        1.4670580001        2.1642249124
 H         -6.8814213846       -0.5837420224       -0.7938179391
 H         -8.0348010244       -0.4669404886        0.5361607321
 H         -6.2628990627       -1.8363112919        1.2917198666
 H         -6.0945452806       -0.2880938048        2.1377329115
 O         -4.2307175839       -1.8887399436        0.0877417573
 C         -2.9658919648       -2.0452477916       -0.4509014932
 O         -2.7699982621       -3.1590878684       -0.9794823896
 H          1.0149876838        1.0291382051       -0.5674334882
 C          1.1398802481        0.2219156761        0.1296018336
 C          0.3851262733       -0.9376062033        0.0517696664
 C          0.5783288593       -1.9099170450        1.0355015054
 C          1.4902045481       -1.7332887281        2.0565132201
 C          2.2626529737       -0.5858611119        2.1079760939
 C          2.0813458324        0.3890740220        1.1378581544
 N          2.8674856272        1.5632398371        1.1333085013
 S          3.9400133971        1.7171594599       -0.1422435744
 O          4.7582892239        2.8663424830        0.1729358982
 O          3.2164344802        1.7578155515       -1.3849220370
 C          4.9260813963        0.2311171029       -0.0612799041
 C          4.4208745911       -0.9351625928       -0.6017119082
 C          5.1506890801       -2.1056731325       -0.4671937484
 C          6.3657593398       -2.0905377500        0.2005122072
 C          6.8607362981       -0.9109307168        0.7356271584
 C          6.1325429625        0.2612622154        0.6103726665
 H          6.4790978756        1.2015705674        1.0080316463
 H          7.8074252034       -0.9017357127        1.2514270374
 H          6.9298585384       -3.0041194691        0.3026605150
 H          4.7644288864       -3.0227444049       -0.8821838369
 H          3.4744892234       -0.9111011436       -1.1178457854
 H          3.3592651149        1.7234460286        2.0016492857
 H          2.9879236594       -0.4424648173        2.8949888485
 H          1.6102969072       -2.4973930337        2.8091994275
 H         -0.0187636588       -2.8110923480        0.9942452101
 C         -0.6805928859       -1.2348375589       -0.9717853757
 H         -0.6460059500       -2.3226852995       -1.1425530451
 C         -0.6349377046       -0.6165168674       -2.3633715218
 C         -0.6226441461        0.8500817407       -2.6676385547
 C          0.5578341400       -0.0012724947       -3.0309123842
 H          0.7148563736       -0.2247561953       -4.0763534779
 H          1.4733299661        0.1355757945       -2.4782094663
 H         -1.2659557103        1.2059084605       -3.4605946013
 H         -0.5410444598        1.5419920109       -1.8446559893
 H         -1.2743760630       -1.2037791183       -3.0204130526
 O         -1.5981702786        1.2002916841        0.4186737570
