  62
        -98.94606346
 C         -1.5177226664       -1.1150843105        0.1964451860
 C         -2.5365698592       -0.6313544218        1.0539714867
 C         -3.0596328812        0.7066805570        0.7525945304
 C         -2.5098788936        1.4149954558       -0.2503750309
 C         -2.9675669004        2.7743937326       -0.6917524775
 C         -4.0340323055        2.6745933308       -1.7916478312
 C         -5.1704800712        1.7063491718       -1.4629331014
 H         -5.8772365523        1.7397450543       -2.2947300950
 H         -4.7712194423        0.6904340874       -1.4202897146
 C         -5.9079731451        2.0148697699       -0.1525217735
 H         -5.7040954294        3.0413153854        0.1543275436
 H         -6.9828126766        1.9356860748       -0.3281069835
 C         -5.5746173912        1.0671195633        1.0012334472
 H         -6.3006097616        1.2359550172        1.8009371180
 H         -5.6883545486        0.0317858171        0.6698600010
 C         -4.1768746088        1.2258005003        1.6134010206
 H         -4.1456577588        0.6328461338        2.5325262772
 H         -4.0049299209        2.2718893484        1.8766555135
 H         -4.4419697363        3.6716058376       -1.9673501577
 H         -3.5513195950        2.3372585854       -2.7116995288
 H         -2.1025082413        3.3163861695       -1.0782199427
 H         -3.3633843064        3.3132763504        0.1671558456
 O         -1.4940158262        0.9452560882       -1.0140211911
 C         -0.9657774261       -0.3199360671       -0.8082632639
 O         -0.0317714516       -0.6062501764       -1.5815484123
 O         -2.9844557007       -1.2903874632        2.0320038155
 C         -0.9412974169       -2.4896914602        0.4865324554
 C          0.5655596623       -2.4204440456        0.4880685619
 C          1.3863251759       -3.2836066247       -0.2259056359
 C          2.7628531951       -3.1382500625       -0.1861747185
 C          3.3470465316       -2.1179145310        0.5407740114
 C          2.5331507355       -1.2486625960        1.2579806485
 C          1.1606765378       -1.4234695702        1.2526212462
 H          0.5436829139       -0.7369969846        1.8153050289
 N          3.0679018641       -0.1609510090        1.9845893677
 S          2.7184734650        1.3619057368        1.3707046862
 O          3.3859212490        2.2905728851        2.2589759599
 O          1.2937563504        1.5211577120        1.2352145349
 C          3.5321197589        1.3819150185       -0.2173114871
 C          4.7892590573        1.9504856789       -0.3031146739
 C          5.4684982672        1.9014474051       -1.5091032389
 C          4.8861529220        1.2758134752       -2.6015814959
 C          3.6265805742        0.7070343009       -2.4967724037
 C          2.9367217476        0.7559760117       -1.2940776366
 H          1.9524963739        0.3234321805       -1.1959189791
 H          3.1668241953        0.2186854851       -3.3410030347
 H          5.4154234495        1.2318526867       -3.5403860584
 H          6.4471241698        2.3460572452       -1.5923554779
 H          5.1992547945        2.4265888539        0.5730675418
 H          4.0665163842       -0.2274977708        2.1325129869
 H          4.4187503325       -1.9865071187        0.5492523810
 H          3.3870297562       -3.8163890467       -0.7476628773
 H          0.9498313341       -4.0599377870       -0.8323472144
 H         -1.2689198063       -2.7081696921        1.5176283009
 C         -1.4995272082       -3.6010847607       -0.3905018398
 C         -2.8268856561       -3.4567214253       -1.0713784377
 C         -1.5678955230       -3.4770971246       -1.8822637703
 H         -1.3600385577       -4.3522926286       -2.4801972613
 H         -1.2219670662       -2.5538099604       -2.3193603163
 H         -3.4804644459       -4.3154429529       -1.1072857854
 H         -3.3476487698       -2.5166415675       -0.9585417606
 H         -1.2743660782       -4.5857009018        0.0074750026
