  62
        -98.94297148
 C          2.6809317369        1.2049329792        0.1459421670
 C          2.6891961169        0.2243567522       -0.8748651050
 C          3.8700635903       -0.6506956153       -0.9090883179
 C          4.8550369893       -0.4663209335       -0.0111628485
 C          6.0835688812       -1.3208642053        0.1018605344
 C          5.8631792873       -2.4833324521        1.0802315352
 C          4.5723591913       -3.2642190809        0.8328907547
 H          4.5389636307       -4.0757669513        1.5630348195
 H          3.7173676407       -2.6149127691        1.0353835669
 C          4.4422341376       -3.8443349703       -0.5823263420
 H          5.4209416720       -3.8719109592       -1.0627821812
 H          4.0889428438       -4.8748403987       -0.5068665098
 C          3.4558949525       -3.1002612959       -1.4844599348
 H          3.2779468277       -3.7133763472       -2.3719205241
 H          2.4992895052       -2.9864346248       -0.9679979302
 C          3.9086675868       -1.7166927852       -1.9675780654
 H          3.2106532476       -1.3915605502       -2.7445771108
 H          4.9051347155       -1.7878808913       -2.4081929181
 H          6.7180164459       -3.1585783013        1.0115095698
 H          5.8297464064       -2.0798998575        2.0949340998
 H          6.9021775059       -0.6993355624        0.4686402324
 H          6.3448093040       -1.7048867144       -0.8822579454
 O          4.8199398429        0.5018229289        0.9404825217
 C          3.7307714014        1.3497578470        1.0525504920
 O          3.8136720587        2.1762669803        1.9838526591
 O          1.7626212128        0.0855895515       -1.7151773566
 C          1.4957579094        2.1445309046        0.2831835905
 C          0.2399639992        1.3401635363        0.5171176623
 C          0.2084108217        0.4576089535        1.5943778846
 C         -0.9135191786       -0.3054227199        1.8512743445
 C         -2.0301348283       -0.2091612365        1.0383660786
 C         -2.0143754947        0.6742448597       -0.0310175119
 C         -0.8862300378        1.4475202062       -0.2816952749
 H         -0.8905091910        2.1275542316       -1.1191827836
 N         -3.1375581213        0.7695329240       -0.8665603887
 S         -4.6640362901        0.8842337821       -0.1856825123
 O         -5.4783601631        1.5245866120       -1.1954305980
 O         -4.6201544285        1.5286121497        1.1064025697
 C         -5.1871278166       -0.8084099136       -0.0076081382
 C         -5.1557921135       -1.6219588434       -1.1231511855
 C         -5.5694956332       -2.9389251516       -1.0025899384
 C         -6.0081845850       -3.4167432428        0.2234144199
 C         -6.0373790327       -2.5862450149        1.3331296405
 C         -5.6239515474       -1.2679749402        1.2193093434
 H         -5.6245727464       -0.5877890404        2.0562776680
 H         -6.3793192136       -2.9592917044        2.2851859645
 H         -6.3291879545       -4.4424432121        0.3143204078
 H         -5.5476370776       -3.5879419420       -1.8632566356
 H         -4.8104875985       -1.2132917133       -2.0581277459
 H         -3.0263766418        1.4093905452       -1.6391476242
 H         -2.9067307190       -0.8061082250        1.2294850348
 H         -0.9198484370       -0.9859779437        2.6893693498
 H          1.0825928220        0.3796800950        2.2273328530
 H          1.6857536744        2.7441867163        1.1852048358
 C          1.4231334968        3.0734442548       -0.9102297243
 C          0.7541907028        4.4084355131       -0.7842788349
 C          2.2458862301        4.3251223707       -0.9024950193
 H          2.7096747379        4.6435119293       -1.8240510265
 H          2.8429346073        4.5206101289       -0.0235478866
 H          0.1953143737        4.7892424014       -1.6261505291
 H          0.3346169549        4.6690448727        0.1758893435
 H          1.3350871126        2.5412602721       -1.8504843019
