  62
        -98.93193488
 C          1.9651300621        1.2360234182       -0.0941432556
 C          2.3611880503       -0.1004016906       -0.3350060147
 C          3.7732081072       -0.4325698061       -0.0453879847
 C          4.5814856462        0.5114683392        0.4667314860
 C          6.0414554717        0.4153546063        0.8314152571
 C          6.4824634633       -0.8473179397        1.5875236877
 C          7.3455509582       -1.7891920837        0.7462283885
 H          8.0296843125       -1.1882536852        0.1433754224
 H          7.9538465005       -2.3992335655        1.4177769718
 C          6.5709084358       -2.7393485360       -0.1654994307
 H          6.0820766596       -3.5046253348        0.4414580144
 H          7.2959837423       -3.2473597085       -0.8058171142
 C          5.5125412494       -2.0789325352       -1.0513824377
 H          5.3313812318       -2.7388969102       -1.9025775853
 H          5.8848323170       -1.1372687350       -1.4535072081
 C          4.1691129605       -1.8535825357       -0.3410281027
 H          3.3554357224       -2.2448034462       -0.9600828670
 H          4.1370568986       -2.4286507216        0.5889940960
 H          7.0725685233       -0.5301125726        2.4489044460
 H          5.6101177024       -1.3740545033        1.9714674967
 H          6.6343021872        0.5271521718       -0.0799061588
 H          6.2389753722        1.3003073118        1.4407559396
 O          4.1447249329        1.7791255976        0.7178623572
 C          2.8465077328        2.1708862879        0.4539759526
 O          2.5982511283        3.3556380146        0.7533266243
 O          1.5907721346       -0.9901307177       -0.7800194342
 C          0.5474821940        1.7200297104       -0.3508363971
 C         -0.4455321914        0.7326727293        0.2094872583
 C         -0.5239380352        0.5764344271        1.5905237104
 C         -1.4092922847       -0.3232392282        2.1527724750
 C         -2.2405034808       -1.0837399019        1.3495632067
 C         -2.1721609680       -0.9330553865       -0.0286921366
 C         -1.2870057286       -0.0224340358       -0.5915480308
 H         -1.2277920381        0.0641117174       -1.6651475825
 N         -3.0192683884       -1.6983639640       -0.8472243842
 S         -4.6340937315       -1.7991086807       -0.4284971882
 O         -4.8115058687       -2.7773597781        0.6155438272
 O         -5.3324337664       -2.0639211443       -1.6668223045
 C         -5.0449608105       -0.1752485886        0.1873064250
 C         -5.4013534751       -0.0053007225        1.5092284354
 C         -5.6703852443        1.2730860242        1.9719075930
 C         -5.5743055812        2.3540485666        1.1098820423
 C         -5.2186726762        2.1666675948       -0.2172885864
 C         -4.9496335964        0.8911036791       -0.6851216743
 H         -4.6778897027        0.7093503376       -1.7125045353
 H         -5.1467140708        3.0094518091       -0.8859552615
 H         -5.7785530538        3.3490270361        1.4727899569
 H         -5.9494746267        1.4217928522        3.0025718004
 H         -5.4631140502       -0.8724325687        2.1462622316
 H         -2.8962838207       -1.5368782693       -1.8354849542
 H         -2.9264316468       -1.8025372940        1.7676342377
 H         -1.4516867100       -0.4376000151        3.2253746402
 H          0.1311555216        1.1650038813        2.2187529068
 H          0.4603892219        2.6498327385        0.2344699309
 C          0.2690077335        2.0966690127       -1.7985548883
 C          1.3451685647        2.6922895781       -2.6551115618
 C          0.8175054890        1.3237182445       -2.9587604659
 H          0.1939152923        1.1999170290       -3.8326885721
 H          1.4411889316        0.4703663948       -2.7450851800
 H          1.0850395314        3.5047639294       -3.3167380863
 H          2.3335030301        2.7777227771       -2.2271709296
 H         -0.7256895515        2.5152999216       -1.9192188042
