  62
        -98.94625608
 C         -2.3851733078       -0.5471517401       -0.0137072608
 C         -1.3899033407       -0.7370727571        0.9724074374
 C         -0.6856663987       -2.0246703184        0.9445108822
 C         -1.0109528319       -2.9280460903        0.0023370063
 C         -0.2906701547       -4.2230977223       -0.2423598484
 C          1.0155863813       -3.9441454933       -1.0151421376
 C          2.2921089527       -4.2671284361       -0.2374818221
 H          3.1256662849       -3.8347441775       -0.7956985108
 H          2.4320487654       -5.3504757567       -0.2165101678
 C          2.3407710994       -3.7566450962        1.2059086727
 H          3.3829950647       -3.8094376066        1.5275152482
 H          1.7792147166       -4.4332984495        1.8521981593
 C          1.8288094226       -2.3269116574        1.4237515308
 H          1.8910909496       -1.7524111521        0.4983523183
 H          2.4810460583       -1.8348367160        2.1487368783
 C          0.3906522461       -2.2430887079        1.9709137493
 H          0.3205945980       -1.3824972901        2.6422297583
 H          0.1652769025       -3.1393648835        2.5553541969
 H          1.0255920217       -2.8910778503       -1.3081664337
 H          1.0225997470       -4.5243425591       -1.9398147078
 H         -0.0796214015       -4.7157754639        0.7042517529
 H         -0.9512268195       -4.8606161656       -0.8307495209
 O         -1.9967790370       -2.7238991920       -0.9099652761
 C         -2.6849120026       -1.5225455081       -0.9614162545
 O         -3.5288134211       -1.4474696972       -1.8795188374
 H         -0.8871904722        0.6821463814       -1.6340756540
 C         -0.9394196882        1.6182828075       -1.0972420435
 C         -2.0225014385        1.8759493600       -0.2661221753
 C         -2.0729521312        3.0971847663        0.3938056430
 C         -1.0455015284        4.0143110783        0.2497691857
 C          0.0603994707        3.7257620692       -0.5290706119
 C          0.1129116627        2.5118326654       -1.2047069944
 N          1.2212653589        2.1558549843       -2.0005648419
 S          2.0866270458        0.7829925892       -1.5811667166
 O          3.1540582176        0.7059924844       -2.5558643578
 O          1.2097449762       -0.3571208147       -1.5103389516
 C          2.7861964515        1.1549192530        0.0177258634
 C          4.1273203731        1.4808523984        0.0883288815
 C          4.6748235378        1.8149431243        1.3160059597
 C          3.8725720370        1.8264002491        2.4472661515
 C          2.5278191931        1.5029245139        2.3574780776
 C          1.9725000111        1.1634495807        1.1328638057
 H          0.9296616315        0.9000059858        1.0503253552
 H          1.8957728927        1.5087341848        3.2311328824
 H          4.2965103797        2.0875154363        3.4041154247
 H          5.7211214892        2.0653044425        1.3862016068
 H          4.7105344346        1.4553253659       -0.8180138847
 H          1.8699291970        2.9150758795       -2.1581810063
 H          0.8758293722        4.4281609953       -0.6147118131
 H         -1.0969142097        4.9583805439        0.7702795392
 H         -2.9125507594        3.3270972313        1.0292993142
 C         -3.0748921389        0.8012430767       -0.1240593374
 H         -3.6689638103        0.7685053337       -1.0493737432
 C         -4.0059670270        1.0227049736        1.0499532942
 C         -5.2460758867        1.8483706180        0.8885099718
 C         -5.3500291769        0.3611619049        1.0387308193
 H         -5.7351302113       -0.0409487664        1.9636788572
 H         -5.6025906176       -0.2278899779        0.1687418193
 H         -5.4425865819        2.2720495171       -0.0848364152
 H         -5.5652946687        2.4671615789        1.7135503340
 H         -3.4776198236        1.0667216895        1.9952798716
 O         -1.0918435807        0.1397707369        1.8273235698
