  62
        -98.93402019
 C         -2.2121507759        0.9113641560       -0.0849590735
 C         -2.5077528584       -0.1590981975       -0.9586518212
 C         -3.1794018652       -1.3298365914       -0.3680149871
 C         -3.4541160881       -1.3364138520        0.9501027982
 C         -4.0831945929       -2.3958884097        1.8310174738
 C         -4.8276040950       -3.5806416342        1.2205828933
 C         -6.1263968384       -3.2180453196        0.5013884815
 H         -6.5165657700       -4.1202343541        0.0252714311
 H         -6.8569013679       -2.8927212119        1.2463289686
 C         -6.0138168703       -2.1126799412       -0.5455759601
 H         -7.0074628832       -1.9556500097       -0.9739674216
 H         -5.7214411410       -1.1779386379       -0.0627267190
 C         -5.0520617846       -2.3984144051       -1.6972548269
 H         -5.1902589277       -1.6114968912       -2.4436745210
 H         -5.3103748591       -3.3506557904       -2.1645151686
 C         -3.5596512929       -2.4242231182       -1.3236279785
 H         -3.2665039694       -3.3955164585       -0.9323784422
 H         -2.9807655264       -2.2495046305       -2.2353561977
 H         -5.0849338853       -4.2456494110        2.0494715148
 H         -4.1705691267       -4.1402141977        0.5614382111
 H         -4.7581063017       -1.8583621946        2.5045618112
 H         -3.2702978824       -2.7823828205        2.4557312981
 O         -3.1164685679       -0.2908592369        1.7611344860
 C         -2.4984240283        0.8506012993        1.2776933746
 O         -2.2645699788        1.7128706444        2.1443279335
 O         -2.2104047545       -0.1467536744       -2.1848012327
 C         -1.5293957282        2.1485995759       -0.6387757409
 C         -0.1693868445        2.3104410525       -0.0041133761
 C          0.2637373288        3.4822052578        0.6000092627
 C          1.5276081107        3.5532694975        1.1615233063
 C          2.3831622813        2.4681930195        1.1324374457
 C          1.9649336831        1.2935498228        0.5187908256
 C          0.7011571470        1.2273183199       -0.0474126055
 H          0.3735815701        0.3132414980       -0.5283903705
 N          2.8174749382        0.1687087855        0.4930207717
 S          4.3870277941        0.4136344973       -0.0875071073
 O          5.1381773623        1.1335270300        0.9088653808
 O          4.3439116716        1.0148394758       -1.4030622479
 C          4.9739257851       -1.2650378133       -0.1892527814
 C          4.9549364756       -1.9202757437       -1.4055626523
 C          5.3954265177       -3.2332064970       -1.4661525054
 C          5.8416399453       -3.8651607091       -0.3152810847
 C          5.8542204916       -3.1939507915        0.8985907245
 C          5.4165875204       -1.8809547393        0.9659084234
 H          5.4165560234       -1.3172867722        1.8840682786
 H          6.2041842833       -3.6883497342        1.7904121067
 H          6.1843840429       -4.8865773167       -0.3655895508
 H          5.3892050991       -3.7564831659       -2.4088194190
 H          4.6075783914       -1.3873608690       -2.2764028329
 H          2.3922172126       -0.5986367238       -0.0114975305
 H          3.3692155065        2.5177131852        1.5642926213
 H          1.8505299777        4.4690402717        1.6335586136
 H         -0.3875151400        4.3397058928        0.6377100133
 H         -1.3787497283        1.9440972618       -1.7095311474
 C         -2.4217498742        3.3627977752       -0.4973446579
 C         -2.2743279663        4.5173757359       -1.4414163805
 C         -3.4681932595        3.6172672424       -1.5391196132
 H         -4.4287179340        3.9958583065       -1.2234122576
 H         -3.5226233069        2.9259646667       -2.3675456792
 H         -2.4170104715        5.5172339323       -1.0602960005
 H         -1.5176298568        4.4418606906       -2.2077503705
 H         -2.6819028163        3.5721036924        0.5340322632
