  62
        -98.93605532
 C         -1.3042902190       -1.6368266412        0.1495151408
 C         -2.4459620991       -1.2707733811        0.9036751206
 C         -3.2500068693       -0.1565686615        0.3776873801
 C         -2.8436664595        0.4694839280       -0.7415925602
 C         -3.5039904097        1.6707877376       -1.3579377508
 C         -3.1478858800        2.9425397681       -0.5617189914
 C         -4.3347437101        3.5998570381        0.1435487583
 H         -3.9333195103        4.3444908986        0.8344782880
 H         -4.9383533602        4.1298029277       -0.5962624019
 C         -5.2620387799        2.6547022383        0.9131014988
 H         -5.8829495001        3.2763951085        1.5616594785
 H         -5.9402385498        2.1581906378        0.2174821690
 C         -4.5699268897        1.5868711689        1.7700110393
 H         -3.5631708098        1.9047861892        2.0427995391
 H         -5.1313249697        1.4819338592        2.7007926593
 C         -4.5080802294        0.1896081186        1.1252302299
 H         -5.3716608494        0.0536948181        0.4678956500
 H         -4.5779972593       -0.5618444411        1.9175696403
 H         -2.3844258499        2.6840130486        0.1753380388
 H         -2.7058687001        3.6821962878       -1.2314874017
 H         -4.5818191697        1.5250617374       -1.3807681307
 H         -3.1419173297        1.7494747172       -2.3830613708
 O         -1.7192291794        0.1180543680       -1.4145560800
 C         -0.9193053292       -0.9389621917       -0.9975242895
 O          0.0726026609       -1.1353701918       -1.7187736494
 O         -2.7757169490       -1.8470805707        1.9759703609
 C         -0.4381334988       -2.7672921308        0.6777655014
 C          1.0089256311       -2.3427853105        0.6522879412
 C          2.0128742413       -3.0389208906       -0.0058639085
 C          3.3101317112       -2.5547346303       -0.0177590387
 C          3.6340697609       -1.3715544699        0.6191483307
 C          2.6363105008       -0.6682143898        1.2820172904
 C          1.3426212509       -1.1611558701        1.3041867306
 H          0.5660385708       -0.6065127400        1.8179518703
 N          2.9479413605        0.5529858705        1.9171822598
 S          3.5949549303        1.7514017802        0.9378749192
 O          4.9659134303        1.4224584704        0.6398984894
 O          3.3809889500        2.9847838005        1.6627486187
 C          2.6196080703        1.7307875193       -0.5528829808
 C          1.3954602201        2.3686294291       -0.5426228011
 C          0.6088094401        2.3266172483       -1.6811378910
 C          1.0510161703        1.6381526079       -2.7993409207
 C          2.2796451804        0.9987869882       -2.7918499904
 C          3.0746683404        1.0430647889       -1.6588356204
 H          4.0371784805        0.5605563291       -1.6147038302
 H          2.6136932306        0.4550385578       -3.6604224801
 H          0.4280653803        1.5912762674       -3.6783256407
 H         -0.3519621200        2.8157918381       -1.6888960713
 H          1.0866043900        2.8964453694        0.3465246587
 H          2.1709738504        0.9339431106        2.4388005396
 H          4.6351083308       -0.9716523997        0.6034633105
 H          4.0791816413       -3.1037711004       -0.5395171385
 H          1.7772089515       -3.9478800409       -0.5339117581
 H         -0.7420618788       -2.8748366303        1.7328998514
 C         -0.6882398385       -4.1153839811        0.0194512520
 C         -2.0108591284       -4.4347517417       -0.6090511579
 C         -0.7936640784       -4.2736181519       -1.4667962879
 H         -0.3673932182       -5.1573665320       -1.9187643575
 H         -0.7004087786       -3.3849165121       -2.0703097784
 H         -2.4184542382       -5.4249294117       -0.4698695474
 H         -2.7581233686       -3.6547112119       -0.6284221182
 H         -0.2103969883       -4.9251261208        0.5625574924
