  62
        -98.94894136
 C          0.8412043129        1.3753762794        0.1813419836
 C          1.4515106427        0.3625178808        0.9559170696
 C          2.2843382875       -0.5919081924        0.2166513290
 C          2.3631854619       -0.5076122345       -1.1241904225
 C          3.1163374247       -1.4508483874       -2.0236800946
 C          4.6044216257       -1.1120097387       -2.1851123099
 C          5.4707047195       -1.4052878791       -0.9596624845
 H          5.3087840333       -2.4356405568       -0.6415797865
 H          6.5121173460       -1.3214328176       -1.2763751946
 C          5.2341630061       -0.4547441399        0.2221103158
 H          4.7083210664        0.4365201028       -0.1280002176
 H          6.1956576834       -0.1231936370        0.6203514558
 C          4.4508842143       -1.0680881454        1.3825240481
 H          4.3171834641       -0.2989563513        2.1472444364
 H          5.0285557909       -1.8840006109        1.8222324495
 C          3.0629213139       -1.6031918804        1.0030936509
 H          3.1576051067       -2.5341275113        0.4436505888
 H          2.5112384610       -1.7953894327        1.9261017980
 H          4.6942137973       -0.0567142932       -2.4529808046
 H          4.9836275519       -1.7009393324       -3.0235199269
 H          2.6363790023       -1.3901031859       -3.0033320849
 H          3.0126453240       -2.4714661765       -1.6528467596
 O          1.7315255965        0.4610955926       -1.8383231631
 C          0.9673930244        1.4305499040       -1.2075835378
 O          0.4707506494        2.2758631117       -1.9769431118
 O          1.2999915523        0.2544597697        2.2029398775
 C         -0.0510616605        2.3912525875        0.8714375926
 C         -1.4459497386        2.2935656181        0.3048710763
 C         -2.2229274157        3.3953913476       -0.0271681839
 C         -3.4752355350        3.2218870880       -0.5915508368
 C         -3.9678534901        1.9567537658       -0.8525461740
 C         -3.2036764272        0.8473275050       -0.5077099319
 C         -1.9713645265        1.0244156483        0.0964808469
 H         -1.3839698536        0.1584308114        0.3658693375
 N         -3.6636506843       -0.4563336837       -0.7446765317
 S         -2.5722457570       -1.6652250115       -1.1313379212
 O         -1.4475958705       -1.1744193281       -1.8931127326
 O         -3.3830957043       -2.6753733167       -1.7816895445
 C         -2.0397404704       -2.3024748936        0.4425645719
 C         -2.9858265746       -2.5095801126        1.4271137223
 C         -2.5835005076       -3.0496666217        2.6377105086
 C         -1.2523118616       -3.3824847010        2.8379207827
 C         -0.3166219580       -3.1746937726        1.8370017308
 C         -0.7107249807       -2.6261377223        0.6270154413
 H         -0.0095256197       -2.4277922828       -0.1698174692
 H          0.7184176133       -3.4324813948        1.9925127850
 H         -0.9390868343       -3.8047959870        3.7796068511
 H         -3.3074395192       -3.2103829492        3.4202905751
 H         -4.0109724170       -2.2428209862        1.2319833860
 H         -4.5112469467       -0.5212173748       -1.2894360356
 H         -4.9298104609        1.8243826329       -1.3237386858
 H         -4.0674716860        4.0859971541       -0.8520944834
 H         -1.8429772987        4.3898344615        0.1403718915
 H         -0.0815879145        2.0849805226        1.9280569012
 C          0.5442264117        3.7805185109        0.7811280969
 C          0.2864330398        4.7875980594        1.8610029830
 C          1.6406305729        4.1602722379        1.7294105143
 H          2.4570492097        4.7619037482        1.3589951700
 H          1.9382453543        3.4236932529        2.4613389570
 H          0.1750411303        5.8246690458        1.5824647274
 H         -0.3331118219        4.4829713849        2.6906664922
 H          0.6231108887        4.1311055689       -0.2420419856
