  62
        -98.94182830
 C          2.3785986713        1.0802695791        0.1360374982
 C          3.6327623690        0.9253006327        0.7847458759
 C          4.5976102000        0.0330298394        0.1345991265
 C          4.2596064036       -0.5942254938       -1.0060227952
 C          5.1384372745       -1.5200559185       -1.8025432230
 C          5.1404634378       -2.9687863476       -1.2956944056
 C          5.8931931133       -3.1984871435        0.0155220467
 H          6.0013366256       -4.2780923571        0.1371330896
 H          6.8960815427       -2.7778703864       -0.0643414475
 C          5.1909839327       -2.6300373499        1.2566459346
 H          4.1428841385       -2.4290966211        1.0218334176
 H          5.2016120952       -3.3760646822        2.0544756165
 C          5.8264130246       -1.3578376403        1.8177293444
 H          6.8327795636       -1.5798874078        2.1793769944
 H          5.2284973813       -1.0229347281        2.6690438906
 C          5.9127026085       -0.1995466041        0.8153386567
 H          6.1691883696        0.7099097710        1.3641155176
 H          6.6919004721       -0.3960554773        0.0792063163
 H          4.1054600933       -3.3014445592       -1.1858658706
 H          5.6059436250       -3.5834128727       -2.0697462140
 H          4.7514317932       -1.5136157845       -2.8239049745
 H          6.1589360619       -1.1359521910       -1.8148839097
 O          3.0444839687       -0.4341772275       -1.5910086624
 C          2.0671678365        0.3854837722       -1.0344718010
 O          1.0064187771        0.3996707017       -1.6873295765
 O          3.9325424876        1.5104649808        1.8586744932
 C          1.3610802998        1.9829257177        0.8137957243
 C          0.0550654235        1.2496932701        0.9753450155
 C         -0.0876123197        0.3260542012        2.0065560260
 C         -1.2565104492       -0.3976579049        2.1480201834
 C         -2.3021235143       -0.2244301394        1.2577832688
 C         -2.1602670278        0.6782065286        0.2129695253
 C         -0.9956142447        1.4247635336        0.0896991667
 H         -0.8905830494        2.1156410236       -0.7322386821
 N         -3.2085640952        0.8548327001       -0.7045029180
 S         -4.0271802795       -0.4908606958       -1.2810495574
 O         -3.2020464182       -1.6761750776       -1.2893373635
 O         -4.5761629482       -0.0773416622       -2.5545534785
 C         -5.3651532727       -0.6874957117       -0.1195028996
 C         -6.1710489769        0.4043879078        0.1377991025
 C         -7.2208742152        0.2661373183        1.0314681689
 C         -7.4487571848       -0.9555316768        1.6473488175
 C         -6.6338628312       -2.0435716046        1.3754862912
 C         -5.5811742692       -1.9112199798        0.4830787739
 H         -4.9185657838       -2.7283911954        0.2449442034
 H         -6.8124698955       -2.9930660744        1.8541811206
 H         -8.2663155295       -1.0605434931        2.3429434885
 H         -7.8568621351        1.1100265465        1.2451655947
 H         -5.9624407643        1.3344603395       -0.3637730964
 H         -2.9756198911        1.4803396570       -1.4624067021
 H         -3.2102186853       -0.7969931644        1.3521502298
 H         -1.3552789937       -1.1075406953        2.9552432957
 H          0.7358083015        0.1752109711        2.6911589258
 H          1.7820909662        2.1548351484        1.8176059149
 C          1.1975543162        3.3549304400        0.1769002083
 C          2.3902198726        4.0926131941       -0.3519866897
 C          1.3319027691        3.6060999960       -1.2938865917
 H          0.6760916233        4.3362376424       -1.7462981429
 H          1.5553020204        2.7682183924       -1.9354120000
 H          2.4681197060        5.1529148437       -0.1651415559
 H          3.3380045591        3.5742405879       -0.3402824708
 H          0.4554782884        3.9500505095        0.7009367688
