  62
        -98.93441801
 C         -2.0287334081       -0.9873107381        0.5351933723
 C         -2.7375834070       -0.0287744054        1.3008655288
 C         -4.1662796619        0.1505717302        0.9937424073
 C         -4.7189087287       -0.5961358216        0.0223089338
 C         -6.1332036245       -0.5426384026       -0.4857307161
 C         -6.2411276739        0.4015293654       -1.6950874911
 C         -6.4892669807        1.8686033894       -1.3467347855
 H         -7.5092742669        1.9811885003       -0.9731851896
 H         -6.4156495580        2.4400946540       -2.2748870528
 C         -5.5241446656        2.4704139519       -0.3218939388
 H         -5.5519429784        3.5562167519       -0.4331436757
 H         -4.5041805845        2.1503956708       -0.5436059675
 C         -5.8813501381        2.1103346661        1.1279747138
 H         -6.8816465482        1.6782581751        1.1520690587
 H         -5.9242859561        3.0226087023        1.7267624050
 C         -4.8940825384        1.1670501026        1.8305144272
 H         -5.4152251131        0.6443629372        2.6398518086
 H         -4.1006907704        1.7562664701        2.3012669712
 H         -7.0603146156        0.0625706662       -2.3324843420
 H         -5.3181818059        0.3118534703       -2.2737673083
 H         -6.8168982888       -0.2490592648        0.3052082005
 H         -6.3849008636       -1.5541767930       -0.8112603940
 O         -4.0046984346       -1.5060745168       -0.6917130426
 C         -2.6508038328       -1.7221458173       -0.4748896239
 O         -2.1538437370       -2.5741944559       -1.2321394796
 O         -2.1924115508        0.6516958349        2.2128370512
 C         -0.5574568292       -1.1618584338        0.8649000681
 C          0.2931466050       -0.2364150663        0.0335244673
 C          0.1635767694       -0.1864981673       -1.3508373163
 C          0.9611554628        0.6588708842       -2.1007305527
 C          1.9061506925        1.4643752927       -1.4891717298
 C          2.0470565222        1.4177269512       -0.1090611678
 C          1.2419226655        0.5716072810        0.6426629853
 H          1.3443178658        0.5528346961        1.7192627364
 N          3.0349513937        2.2109289944        0.5095476247
 S          4.6120098720        1.9115562282        0.0169069913
 O          5.4512671356        2.4249794731        1.0750558127
 O          4.8161868885        2.4768681878       -1.2918530291
 C          4.7019487948        0.1322463588       -0.0553699866
 C          4.4864871523       -0.5141093500       -1.2558442154
 C          4.4505926293       -1.8993217537       -1.2724523677
 C          4.6296021164       -2.6102168971       -0.0963049825
 C          4.8545883292       -1.9462397503        1.1000729616
 C          4.8840403660       -0.5614309236        1.1248120035
 H          5.0569717434       -0.0083424174        2.0343614635
 H          4.9969122985       -2.5028606399        2.0124472624
 H          4.5899969515       -3.6875245035       -0.1112220803
 H          4.2760224453       -2.4189178009       -2.2007875323
 H          4.3556757616        0.0733621546       -2.1494424480
 H          2.9817778500        2.1998301545        1.5184295228
 H          2.5410584274        2.1236824876       -2.0588502031
 H          0.8469288840        0.6902498530       -3.1737846373
 H         -0.5643234352       -0.8232852217       -1.8306741422
 H         -0.4692149606       -0.8349140703        1.9131333079
 C         -0.0849858253       -2.6081831633        0.7989474971
 C          0.9055754987       -3.1119628424       -0.2036733411
 C          1.3099318505       -2.9545668850        1.2291200400
 H          1.4616709614       -3.8390338237        1.8284476240
 H          1.9720356031       -2.1360475612        1.4694453712
 H          0.7512922765       -4.1045147010       -0.5975122154
 H          1.3058509140       -2.4155282152       -0.9233502991
 H         -0.8688017079       -3.3012596174        1.0858507218
