  62
        -98.93766877
 C         -1.7448788002       -1.3151237502       -0.2139803615
 C         -3.0370918801       -1.3138523603        0.3630432287
 C         -3.9369046101       -0.2377780400       -0.0727092707
 C         -3.4998733001        0.6761456903       -0.9578786504
 C         -4.2945776001        1.8133240906       -1.5444619098
 C         -4.7695057198        2.8981446803       -0.5586400093
 C         -6.1865717098        2.6812034402       -0.0131573092
 H         -6.6997175997        3.6442532602        0.0260483913
 H         -6.7429723900        2.0595822205       -0.7158690794
 C         -6.2744651896        2.0710950696        1.3890854506
 H         -7.3036715996        1.7411573297        1.5467263206
 H         -6.0612900094        2.8454073793        2.1295918908
 C         -5.3314379797        0.9001616394        1.6660738499
 H         -4.3150932496        1.2730391693        1.8131644099
 H         -5.6294909696        0.4380442691        2.6093793798
 C         -5.2969071800       -0.1711747601        0.5591113295
 H         -5.4883198000       -1.1561652603        0.9898673391
 H         -6.0590733501        0.0278140303       -0.1929592903
 H         -4.7560993598        3.8448009505       -1.1010433889
 H         -4.0553485597        2.9845829999        0.2596592906
 H         -3.6400137402        2.2709825909       -2.2889602598
 H         -5.1583295102        1.4002683809       -2.0707498899
 O         -2.2436623102        0.6441061004       -1.4809223606
 C         -1.3384678002       -0.3486488198       -1.1337274012
 O         -0.2375524903       -0.2593340497       -1.7078626613
 H          1.8049293796       -2.3588545403       -0.8038855725
 C          1.6979585198       -1.8215750906        0.1249033978
 C          0.4694715899       -1.7738099708        0.7613611880
 C          0.3651278702       -1.0586051812        1.9522919583
 C          1.4621873903       -0.4127094416        2.4888344384
 C          2.6862960402       -0.4509038714        1.8423866082
 C          2.7966219299       -1.1523263109        0.6500912679
 N          4.0217823598       -1.1730357408       -0.0348370523
 S          4.9301630300        0.2267753592       -0.0977993619
 O          5.6936088398        0.1244706296       -1.3227271020
 O          5.7116554102        0.3467260686        1.1094679480
 C          3.7871674701        1.5972493793       -0.1936129012
 C          4.0678504903        2.7339876190        0.5390874693
 C          3.2092402304        3.8179121191        0.4570316998
 C          2.0821634003        3.7454352295       -0.3473437500
 C          1.8129824200        2.5968572899       -1.0746313105
 C          2.6741017600        1.5132664497       -1.0057303110
 H          2.4546198198        0.6163425500       -1.5619342314
 H          0.9296678499        2.5190269602       -1.6889051504
 H          1.4083452203        4.5857334896       -0.4068612396
 H          3.4179670006        4.7117359688        1.0227149102
 H          4.9468893504        2.7419556086        1.1632284191
 H          3.9813935597       -1.6235508204       -0.9372935325
 H          3.5519832003        0.0515246683        2.2432815682
 H          1.3655859905        0.1334156081        3.4148495386
 H         -0.5951489098       -1.0108307713        2.4473574184
 C         -0.7693846702       -2.4093368304        0.1840664379
 H         -1.2730421002       -2.9756830107        0.9797802877
 C         -0.5064032005       -3.3383804100       -0.9822090525
 C          0.0306580194       -4.7155059001       -0.7343994232
 C         -1.3898311807       -4.5326661398       -1.1752624729
 H         -1.6593300808       -4.8164761294       -2.1816169629
 H         -2.1767798006       -4.6910381700       -0.4527380528
 H          0.7367148892       -5.1302452499       -1.4379832634
 H          0.2110915195       -5.0024353405        0.2903958067
 H         -0.1818959206       -2.8154883896       -1.8750545924
 O         -3.4230956801       -2.1766023006        1.1963123084
