  62
        -98.94514485
 C         -1.5321183757       -0.7444006026       -0.5336387280
 C         -2.8282979846       -1.3066967252       -0.5979055892
 C         -3.9379522785       -0.3469069014       -0.6286001717
 C         -3.6789262344        0.9735809719       -0.6163802620
 C         -4.7024313772        2.0754920008       -0.6699751803
 C         -5.3061967732        2.4334746167        0.6949436455
 C         -6.2822031409        1.4033063129        1.2646290613
 H         -6.7905191896        1.8750226513        2.1080133632
 H         -7.0410806336        1.1704934053        0.5169297458
 C         -5.6209110839        0.1059753299        1.7505722601
 H         -4.5482932763        0.2697605861        1.8779789297
 H         -6.0219027146       -0.1626456638        2.7305661374
 C         -5.8318557304       -1.0963008150        0.8301453364
 H         -6.8933715096       -1.3518992273        0.7983980820
 H         -5.2935539780       -1.9494618898        1.2512109140
 C         -5.3363810595       -0.8862119705       -0.6068353621
 H         -6.0112655925       -0.2197728373       -1.1435883134
 H         -5.3268968823       -1.8556626404       -1.1112348274
 H         -5.8389272151        3.3800204681        0.5777707567
 H         -4.4921494700        2.5956587153        1.4051507839
 H         -4.1894977328        2.9568357053       -1.0605931979
 H         -5.4999300079        1.8025111970       -1.3615796479
 O         -2.4157450979        1.4738591268       -0.5708098093
 C         -1.3120194709        0.6333670594       -0.5056114149
 O         -0.2196833260        1.2233733366       -0.4327477830
 O         -3.0474476408       -2.5480361094       -0.6255695301
 C         -0.3268532984       -1.6648505011       -0.4895066472
 C          0.5064855891       -1.3682876270        0.7318896131
 C         -0.1202828352       -1.2650645738        1.9716951643
 C          0.6054779050       -0.9654984666        3.1074480169
 C          1.9710653970       -0.7514158391        3.0322262480
 C          2.6088441699       -0.8696908382        1.8039789113
 C          1.8789840155       -1.1914891052        0.6670831537
 H          2.4029718865       -1.3026954568       -0.2662212482
 N          3.9917793905       -0.6792619977        1.6985675724
 S          4.6907457523       -0.1300631324        0.2873303200
 O          4.7646418920       -1.2000638361       -0.6765167607
 O          5.9635340261        0.4112072799        0.7161294691
 C          3.6563261903        1.1839532053       -0.3311303528
 C          3.2222305650        1.1444811531       -1.6395291171
 C          2.4409001218        2.1821468451       -2.1191505116
 C          2.1057920143        3.2350852292       -1.2844726474
 C          2.5515365410        3.2616783723        0.0268856677
 C          3.3361082115        2.2288891403        0.5110385815
 H          3.6994647273        2.2258932006        1.5261136192
 H          2.2818375079        4.0803374731        0.6746961289
 H          1.4862391131        4.0355238354       -1.6566674432
 H          2.0864813904        2.1606637550       -3.1378173775
 H          3.4983120272        0.3014545141       -2.2537880767
 H          4.4452761225       -0.3136115423        2.5219571908
 H          2.5375954871       -0.5012680451        3.9159846011
 H          0.1039746265       -0.8861812489        4.0603382091
 H         -1.1897053581       -1.4166970177        2.0299456427
 H         -0.7334487999       -2.6831039735       -0.3973612274
 C          0.4522436876       -1.5635898840       -1.7840981638
 C          1.2642396604       -2.7244748692       -2.2726285753
 C         -0.0026076066       -2.3457921143       -2.9780220730
 H          0.0651079392       -1.8862550597       -3.9526467950
 H         -0.8668641787       -2.9820662851       -2.8546324619
 H          2.2092945254       -2.5283937838       -2.7573250042
 H          1.2619926571       -3.6225487143       -1.6733288895
 H          0.8343812274       -0.5630488453       -1.9566766562
