  62
        -98.93740452
 C         -1.8588241993       -0.6184878186       -0.7640746784
 C         -2.1846797517       -0.0920472546        0.5070755790
 C         -3.6153223443       -0.0961157470        0.8657119904
 C         -4.5073462795       -0.5985244525       -0.0056800975
 C         -6.0030797498       -0.6509689614        0.1417004132
 C         -6.6569547189        0.5807057660       -0.5074143641
 C         -6.7796566770        1.8005006577        0.4049039686
 H         -7.1342662441        2.6311513036       -0.2097121054
 H         -7.5413824602        1.6059351234        1.1628820408
 C         -5.4874205762        2.2251341332        1.1073806402
 H         -5.5980451399        3.2687724498        1.4081523439
 H         -4.6538501472        2.1777829241        0.4043997564
 C         -5.1704319943        1.3809604727        2.3507921243
 H         -6.0480247905        0.7906123486        2.6137503348
 H         -4.9784409880        2.0429718610        3.1977238901
 C         -3.9475700567        0.4604704440        2.2233599692
 H         -3.0475182099        1.0058849457        2.5241234814
 H         -4.0540988604       -0.3737138419        2.9249474303
 H         -7.6591893374        0.3085268033       -0.8446780912
 H         -6.0736033948        0.8408003863       -1.3944253591
 H         -6.2852182807       -0.7419253366        1.1863682636
 H         -6.3369854690       -1.5433162423       -0.3919907457
 O         -4.1466198359       -1.1038095654       -1.2184779664
 C         -2.8268396364       -1.1265656495       -1.6286006363
 O         -2.6439624450       -1.6212564682       -2.7599877365
 O         -1.3257170856        0.3647532961        1.3055517729
 C         -0.4124888783       -0.6487716898       -1.2205213693
 C          0.4391988426       -1.4300123576       -0.2490830270
 C         -0.0505902515       -2.6206032677        0.2817914697
 C          0.7049879590       -3.3641122687        1.1666965254
 C          1.9758796203       -2.9494410495        1.5240998157
 C          2.4823811054       -1.7731110659        0.9871053626
 C          1.7130169933       -1.0184639869        0.1112966342
 H          2.1247577303       -0.1088517912       -0.2927934347
 N          3.7636016484       -1.3217308211        1.3342852745
 S          4.7525872926       -0.6258224392        0.1797058152
 O          4.5344251166       -1.1992595382       -1.1277175422
 O          6.0903543798       -0.7646184572        0.7161638609
 C          4.3172444186        1.1004156574        0.1766989018
 C          4.3676919599        1.7968300110       -1.0145865746
 C          4.0786927308        3.1526860052       -1.0128186051
 C          3.7458512591        3.7852298055        0.1748745954
 C          3.7018436078        3.0717204248        1.3630947270
 C          3.9940086782        1.7171552748        1.3690039558
 H          3.9650314740        1.1337212849        2.2739763826
 H          3.4392781643        3.5661940088        2.2844919817
 H          3.5182773880        4.8396126004        0.1739077028
 H          4.1127571160        3.7086722704       -1.9364715447
 H          4.6196894329        1.2628701893       -1.9171100399
 H          4.2792070170       -1.9313885838        1.9519888777
 H          2.5694387670       -3.5311130729        2.2130132490
 H          0.3053368659       -4.2795732781        1.5767540750
 H         -1.0393572521       -2.9530115734       -0.0049050075
 H         -0.4065648250       -1.1881965578       -2.1799271598
 C          0.0833091401        0.7638819960       -1.4542168629
 C          1.1242630583        1.0429240586       -2.4949436211
 C         -0.2963774742        1.4598361363       -2.7254880381
 H         -0.5383239769        2.5111453798       -2.6866240894
 H         -0.8871804793        0.9011877354       -3.4372348959
 H          1.8558372335        1.8110120097       -2.2942124315
 H          1.5094086911        0.2046869340       -3.0564440505
 H          0.0986715297        1.3528198296       -0.5441627953
