  62
        -98.94702779
 C         -2.2189508115       -0.7192371498       -0.4952315662
 C         -1.4692783955        0.2831140762       -1.1558603574
 C         -1.8983705401        1.6707570797       -0.9257926936
 C         -2.9369859966        1.9195175263       -0.1098386912
 C         -3.4456995639        3.2851029532        0.2487672310
 C         -2.7709683127        3.8213196260        1.5184365109
 C         -1.2452072490        3.7202166530        1.5042156724
 H         -0.9461504370        2.6690443744        1.5321161810
 H         -0.8812991754        4.1750204657        2.4287688873
 C         -0.5721596910        4.3982750758        0.3027901323
 H          0.2892769963        4.9653821815        0.6620947326
 H         -1.2602083949        5.1077350438       -0.1597531499
 C         -0.0525206630        3.4207055273       -0.7529277979
 H          0.5272370059        2.6390649476       -0.2553445831
 H          0.6236897048        3.9630660043       -1.4197498494
 C         -1.1260157078        2.7548056134       -1.6240548139
 H         -0.6215115444        2.2715225214       -2.4656978865
 H         -1.8025366553        3.5149775974       -2.0207957337
 H         -3.1420871062        3.2534888236        2.3749508689
 H         -3.0651474561        4.8647135097        1.6493359056
 H         -3.2664944276        3.9632158544       -0.5834386579
 H         -4.5209463721        3.2145944397        0.4233490503
 O         -3.6324514757        0.9351958413        0.5152697537
 C         -3.2839210605       -0.3931421231        0.3502076541
 O         -4.0006883963       -1.1899209070        0.9908890815
 H          0.5599314639       -1.1485079771       -0.2392645477
 C          0.3434596952       -1.9049281004        0.4951334692
 C         -0.8726801626       -2.5725983523        0.4551288049
 C         -1.1292139736       -3.5551959362        1.4033223105
 C         -0.1947503673       -3.8477197742        2.3809522424
 C          0.9932185905       -3.1437401712        2.4486099280
 C          1.2594048475       -2.1568304503        1.5045425771
 N          2.4487639680       -1.4161272878        1.5621211223
 S          2.4606346026        0.2497350020        1.3111877760
 O          3.3136246913        0.7714059550        2.3620490831
 O          1.1242588623        0.7863983939        1.2547956169
 C          3.3264725446        0.4227410324       -0.2362345264
 C          4.7082375266        0.3972970696       -0.1875171222
 C          5.4277034215        0.5061472240       -1.3652772480
 C          4.7566841995        0.6385601327       -2.5720185778
 C          3.3717877086        0.6631266686       -2.6041672023
 C          2.6441320856        0.5528215329       -1.4280235650
 H          1.5649061895        0.5644179676       -1.4415286611
 H          2.8434614549        0.7643750454       -3.5388256029
 H          5.3146941883        0.7241884142       -3.4912446320
 H          6.5053881064        0.4882178619       -1.3397860802
 H          5.1880573937        0.3087508586        0.7731160296
 H          3.0389540676       -1.6508977552        2.3472677374
 H          1.7094708024       -3.3484789898        3.2303492444
 H         -0.4031899841       -4.6145496477        3.1117777809
 H         -2.0758661004       -4.0750867686        1.3843158627
 C         -1.9077063799       -2.2067453380       -0.5830568650
 H         -2.8411404436       -2.7216602186       -0.3159926803
 C         -1.4837283773       -2.6738216563       -1.9610914904
 C         -1.6800488090       -4.1124782390       -2.3298265841
 C         -2.5319619750       -3.0532919337       -2.9612988685
 H         -2.3671335785       -2.8038055012       -3.9985137027
 H         -3.5653711157       -2.9791095992       -2.6542509901
 H         -2.1384715272       -4.7601517296       -1.5978247081
 H         -0.9275883750       -4.5951053097       -2.9341407259
 H         -0.6000630787       -2.1737386062       -2.3330847029
 O         -0.4901797227        0.0589773779       -1.9167796618
