  62
        -98.94301678
 C         -2.6274803230       -1.2010814610        0.2370094110
 C         -2.7702730855       -0.3188015648       -0.8613557191
 C         -3.8323891253        0.6893322384       -0.7389729270
 C         -4.6106631368        0.7234445881        0.3570310414
 C         -5.7480215481        1.6746545152        0.6119079118
 C         -5.3129500729        3.0307412319        1.1839773180
 C         -4.6092065196        3.9588104141        0.1931729284
 H         -5.2180467694        4.0571889265       -0.7061236176
 H         -4.5560160804        4.9443439446        0.6599143653
 C         -3.1896159651        3.5173642754       -0.1894724881
 H         -2.8250005057        2.7888482508        0.5385810150
 H         -2.5167417929        4.3767129707       -0.1457853199
 C         -3.0683293034        2.9189154021       -1.5909915043
 H         -3.3041422182        3.6811762904       -2.3370481142
 H         -2.0307776254        2.6099157690       -1.7425824334
 C         -3.9672531229        1.7002830719       -1.8380257821
 H         -5.0057458621        2.0139998648       -1.9407318199
 H         -3.6517132779        1.2241076562       -2.7696773911
 H         -4.6624060138        2.8546901863        2.0437176563
 H         -6.2122173985        3.5349033350        1.5451684694
 H         -6.3093897010        1.8302638873       -0.3098219084
 H         -6.4014445934        1.1880395300        1.3391965780
 O         -4.4553493679       -0.1515820519        1.3847394756
 C         -3.4621486253       -1.1133987402        1.3575015143
 O         -3.4269252040       -1.8345016428        2.3744707402
 H         -0.0420924530       -0.6014823523       -1.1346189424
 C          0.4464768689       -0.9181572029       -0.2248234457
 C         -0.2159620192       -1.7831008461        0.6346442559
 C          0.4225484948       -2.1731929975        1.8060971379
 C          1.6904701141       -1.7070550953        2.1062581864
 C          2.3453799301       -0.8418722064        1.2482335686
 C          1.7155342043       -0.4442179288        0.0761798473
 N          2.3628529394        0.4523350836       -0.7930403767
 S          3.9223812609        0.0779793473       -1.2906657107
 O          4.1019430778        0.7791875724       -2.5430999119
 O          4.1414852176       -1.3499576724       -1.3168321292
 C          4.9614873649        0.8296219063       -0.0548578246
 C          5.8843574926        0.0616261063        0.6278902152
 C          6.6917350717        0.6697408232        1.5766614185
 C          6.5634358518        2.0279753828        1.8235431131
 C          5.6335801433        2.7858421175        1.1271914852
 C          4.8242879076        2.1842659833        0.1767671676
 H          4.0929820477        2.7378156250       -0.3882288582
 H          5.5368234692        3.8418657795        1.3217159223
 H          7.1919597145        2.4991524827        2.5626518508
 H          7.4155913865        0.0824548062        2.1184750717
 H          5.9448238468       -0.9919364527        0.4059704582
 H          1.7935137952        0.7182767169       -1.5841261511
 H          3.3323007330       -0.4745083663        1.4777192585
 H          2.1738597640       -2.0191618136        3.0194294468
 H         -0.0872981600       -2.8395612206        2.4868216240
 C         -1.5892627329       -2.3116895672        0.2930370446
 H         -1.9066367700       -2.9667479765        1.1152934107
 C         -1.5432772679       -3.1362572325       -0.9799579374
 C         -0.9826841241       -4.5240546918       -0.9259151338
 C         -2.4540451231       -4.3164652153       -1.1224248421
 H         -2.8818990705       -4.5230014457       -2.0919614333
 H         -3.1150781026       -4.5393587795       -0.2972774816
 H         -0.3946782147       -4.8743908466       -1.7604692625
 H         -0.6463096152       -4.8906270121        0.0321619784
 H         -1.3494645725       -2.5494921622       -1.8681992900
 O         -2.0650602608       -0.3481713639       -1.9065903835
