  62
        -98.93826502
 C         -1.6219229820       -1.6466333022        0.1006530034
 C         -1.4696415079       -0.3025652868       -0.3175655089
 C         -2.5382285208        0.6224702637        0.0951411244
 C         -3.5587754886        0.1614790452        0.8403400693
 C         -4.7600744211        0.9592838112        1.2618184619
 C         -5.7369056191        1.1043046700        0.0771903915
 C         -5.9119506190        2.5376600823       -0.4253861070
 H         -6.4427451668        2.4866546830       -1.3785438086
 H         -6.5469085240        3.0841190594        0.2752505245
 C         -4.6222145516        3.3420086438       -0.6147054783
 H         -4.8801834474        4.2175668405       -1.2143019470
 H         -4.2792833718        3.7162737627        0.3509147013
 C         -3.4632161446        2.6021366103       -1.2951900560
 H         -2.9593678617        3.3031883476       -1.9634650363
 H         -3.8389596152        1.7879419159       -1.9151256925
 C         -2.3954578690        2.0578652857       -0.3276867798
 H         -1.4193629269        2.1042750784       -0.8191106704
 H         -2.3506918671        2.6938237549        0.5601277513
 H         -5.3813450766        0.4719510266       -0.7390724945
 H         -6.7172863240        0.7215257001        0.3650149507
 H         -5.2359115732        0.4217912251        2.0822690116
 H         -4.4461694128        1.9367750833        1.6209823492
 O         -3.6559997862       -1.1333857910        1.2408939868
 C         -2.6947909583       -2.0647868584        0.8890605467
 O         -2.9026584945       -3.2124457478        1.3316404115
 H          1.6549441316       -1.6279152225       -1.4800224788
 C          1.7615105901       -1.7253745076       -0.4117068697
 C          0.7349405622       -2.2734146537        0.3393227231
 C          0.8962897030       -2.3708712738        1.7187518126
 C          2.0575755268       -1.9336742452        2.3270038507
 C          3.0776251817       -1.3765185734        1.5746103800
 C          2.9198837389       -1.2632822264        0.2001217379
 N          3.9432062724       -0.6870715414       -0.5775472724
 S          4.5073820032        0.8329011622       -0.1626598922
 O          5.2930349857        1.2619292387       -1.2977142160
 O          5.2052104123        0.7480730174        1.0961331373
 C          3.0703131250        1.8738881205        0.0094938398
 C          2.4263527315        1.9473366219        1.2277929712
 C          1.3013739158        2.7475701039        1.3410284698
 C          0.8448186088        3.4588420554        0.2429508038
 C          1.4990657477        3.3686558477       -0.9753951134
 C          2.6197216984        2.5647580049       -1.0970866950
 H          3.1624231884        2.4739589804       -2.0244059287
 H          1.1367802967        3.9183153564       -1.8294487424
 H         -0.0260623416        4.0882657947        0.3371140970
 H          0.7844514227        2.8119041520        2.2853733981
 H          2.8161377270        1.3900556804        2.0637339911
 H          3.7445705595       -0.7096708692       -1.5679068989
 H          3.9853959713       -1.0185791991        2.0330134104
 H          2.1709326193       -2.0230916909        3.3970376145
 H          0.0907421783       -2.7877960730        2.3081461665
 C         -0.5809432024       -2.6917601658       -0.2674470407
 H         -0.9024566133       -3.6242634221        0.2153672104
 C         -0.5341851436       -2.9089283463       -1.7651130604
 C          0.1121961675       -4.1444951531       -2.3136261691
 C         -1.3771523733       -3.9883326313       -2.3715659141
 H         -1.8400442596       -3.8037560524       -3.3294760018
 H         -1.9823390289       -4.5833858931       -1.7031825349
 H          0.6720121485       -4.0717227906       -3.2336987922
 H          0.5209235245       -4.8488470833       -1.6049873387
 H         -0.4338028673       -1.9879300637       -2.3267943665
 O         -0.4996972688        0.1105827847       -1.0047641150
