  62
        -98.94464430
 C          1.8004449373        0.6008137986       -0.4364253495
 C          2.8784131350        1.3232804153        0.1300245040
 C          4.2209937968        0.8383805518       -0.2074983624
 C          4.3614968789       -0.2188882778       -1.0278077702
 C          5.6646643770       -0.8139617866       -1.4883198461
 C          6.2760754578       -1.8171665546       -0.5006509449
 C          6.8737782806       -1.2015428905        0.7651567803
 H          7.4533470071       -1.9841799509        1.2588177060
 H          7.5684494639       -0.4079004178        0.4883747274
 C          5.8348694481       -0.6574209258        1.7556072726
 H          6.0867370483       -0.9882988250        2.7657125847
 H          4.8531761286       -1.0740085869        1.5181283397
 C          5.7310204346        0.8674009178        1.7909250518
 H          6.6707825960        1.2900703151        2.1529700328
 H          4.9442596602        1.1409727915        2.4984821242
 C          5.3957745617        1.5094215190        0.4381156260
 H          5.1278514115        2.5544901490        0.6112601771
 H          6.2635073274        1.4749263022       -0.2201456054
 H          7.0691639324       -2.3517117894       -1.0286255370
 H          5.5104439143       -2.5463674726       -0.2255221650
 H          6.3809478103       -0.0170092538       -1.6901132051
 H          5.4533248959       -1.3369474409       -2.4235795493
 O          3.2995521693       -0.8767966204       -1.5648316615
 C          1.9961335275       -0.5023813215       -1.2671085256
 O          1.1257364754       -1.2162396222       -1.8006323892
 O          2.7249177413        2.3226866012        0.8816832747
 C          0.3808236386        1.0379755771       -0.1182415905
 C         -0.3478800322       -0.0836913940        0.5770374206
 C          0.1899845592       -0.5844782704        1.7613797002
 C         -0.4146941804       -1.6322613461        2.4258688965
 C         -1.5766533564       -2.1976777540        1.9294697238
 C         -2.1245702000       -1.7027597928        0.7524848971
 C         -1.5165194789       -0.6443562066        0.0878165908
 H         -1.9509244621       -0.2951698101       -0.8335486119
 N         -3.2943860629       -2.2654408034        0.2302182101
 S         -4.3711090644       -1.3912186452       -0.6860783201
 O         -5.6064790934       -2.1408935488       -0.5889363324
 O         -3.8697963927       -1.1873780435       -2.0220604128
 C         -4.5653486652        0.1842204770        0.1317399283
 C         -4.6369052802        0.2346781231        1.5097909353
 C         -4.8153048349        1.4624317885        2.1267517134
 C         -4.9269992743        2.6128498795        1.3612428412
 C         -4.8627295203        2.5452060034       -0.0214465282
 C         -4.6795169027        1.3202587431       -0.6429519826
 H         -4.6173017502        1.2210829472       -1.7148521514
 H         -4.9507848086        3.4398718106       -0.6167412238
 H         -5.0653970819        3.5671505860        1.8444353942
 H         -4.8662831349        1.5176528349        3.2022317117
 H         -4.5521489713       -0.6723855114        2.0851709604
 H         -3.7417764249       -2.9661483836        0.8008179761
 H         -2.0478496780       -3.0233336676        2.4404824921
 H          0.0179613819       -2.0130606550        3.3386801629
 H          1.0991444827       -0.1428895135        2.1460460725
 H          0.4876570419        1.8702231279        0.5930709749
 C         -0.3108779961        1.5499570203       -1.3624536964
 C         -1.4289906510        2.5404064001       -1.2453138968
 C         -0.0953773392        2.9749999781       -1.7725353973
 H         -0.0026288706        3.2002018309       -2.8244038845
 H          0.5342630397        3.5823771767       -1.1389394949
 H         -2.2529764422        2.4644182141       -1.9379127353
 H         -1.7142318814        2.8577573210       -0.2538129687
 H         -0.3665548698        0.8065473789       -2.1503231010
