  62
        -98.94006603
 C          2.4338667424        0.9659794185        0.0384547789
 C          3.6877777381        0.8965585025        0.6997451181
 C          4.7137551514        0.0570231494        0.0683504646
 C          4.4147542419       -0.6015106711       -1.0658218411
 C          5.3433213965       -1.5338377765       -1.7873320136
 C          5.1685344619       -2.9789828337       -1.3000300319
 C          5.1884200826       -3.1240924018        0.2216415344
 H          4.3115509820       -2.6234721404        0.6388224222
 H          5.0882387174       -4.1877837822        0.4480367865
 C          6.4537826971       -2.5750982890        0.8954908070
 H          6.7974633843       -3.2987964870        1.6376114722
 H          7.2492561605       -2.4661315926        0.1573843651
 C          6.2573043803       -1.2463509983        1.6277910882
 H          5.4008301499       -1.3226540297        2.3024445032
 H          7.1422817773       -1.0629876318        2.2429880484
 C          6.0587244229       -0.0147989865        0.7351511962
 H          6.8589736528        0.0352655835       -0.0061940116
 H          6.1253744075        0.8712649689        1.3733490144
 H          4.2105243304       -3.3544219354       -1.6669308125
 H          5.9622711770       -3.5883141332       -1.7360304656
 H          5.1152811530       -1.4891920560       -2.8536437861
 H          6.3699480464       -1.2080245540       -1.6312730081
 O          3.1994463987       -0.5272619717       -1.6618689615
 C          2.1728474243        0.2441242155       -1.1277151578
 O          1.1180461311        0.1920097819       -1.7854419670
 O          3.9365983822        1.5090851057        1.7724469891
 C          1.3553565314        1.8183862380        0.6845236971
 C          0.0707765445        1.0383934978        0.7971240539
 C         -0.0200926360        0.0203287900        1.7420384665
 C         -1.1749747546       -0.7279574811        1.8666002900
 C         -2.2630913130       -0.4809498598        1.0479506402
 C         -2.1825649006        0.5301969645        0.1007756115
 C         -1.0245135453        1.2887163056       -0.0135582125
 H         -0.9677303910        2.0595021006       -0.7665852153
 N         -3.2746889619        0.7696511883       -0.7485931640
 S         -4.8034751629        0.9234607875       -0.0828156012
 O         -5.5566203780        1.7071179903       -1.0378904591
 O         -4.7440787276        1.4412131311        1.2649889811
 C         -5.4401444481       -0.7392920799       -0.0693657991
 C         -5.4365418813       -1.4478801211       -1.2548132803
 C         -5.9409472256       -2.7384442242       -1.2641566638
 C         -6.4402780621       -3.2944452573       -0.0956215678
 C         -6.4392156089       -2.5690466396        1.0858360081
 C         -5.9352020007       -1.2777268030        1.1020893465
 H         -5.9087640086       -0.6783573002        1.9982158912
 H         -6.8274475323       -3.0033012839        1.9931318882
 H         -6.8323202868       -4.2992304096       -0.1062530399
 H         -5.9424633757       -3.3059259436       -2.1808953659
 H         -5.0411659500       -0.9803047432       -2.1412180443
 H         -3.1020199531        1.4727899802       -1.4516260665
 H         -3.1656071809       -1.0637908896        1.1347916803
 H         -1.2292580657       -1.5140275878        2.6044978547
 H          0.8324605368       -0.1795612655        2.3769788853
 H          1.7305123618        1.9994053362        1.7054145754
 C          1.1680484329        3.1888467212        0.0507125786
 C          2.3406068466        3.9425231311       -0.4998708426
 C          1.2772212864        3.4330036044       -1.4235539254
 H          0.6042348679        4.1499998550       -1.8719802699
 H          1.5039889933        2.5922519602       -2.0598928465
 H          2.4022852361        5.0049394432       -0.3183953718
 H          3.2978043319        3.4417985456       -0.4988999144
 H          0.4256760825        3.7761597504        0.5841210083
