  62
        -98.93920852
 C          2.3525870316        0.4196026137        0.6033649147
 C          3.1597749177        0.7532857273       -0.5124576734
 C          4.1583494893       -0.2565291306       -0.8961202615
 C          4.2167475092       -1.4319059508       -0.2463896547
 C          5.1546811056       -2.5687192302       -0.5496029185
 C          6.5400760822       -2.4251896442        0.0953529186
 C          7.4431099621       -1.3627313591       -0.5325857225
 H          8.4467676929       -1.5187047764       -0.1321099263
 H          7.4941969749       -1.5221738017       -1.6100603222
 C          7.0153875135        0.0829066117       -0.2434873945
 H          6.3222328802        0.0949058772        0.6009161251
 H          7.8888624580        0.6688308719        0.0514636321
 C          6.3663885738        0.8005358581       -1.4270884752
 H          7.0957270574        0.9115401041       -2.2324252353
 H          6.0701225739        1.8006987890       -1.1008870883
 C          5.1232895899        0.0972826950       -1.9876116880
 H          4.6165471902        0.7860292681       -2.6678063594
 H          5.4134158687       -0.7939386591       -2.5434280596
 H          7.0400398416       -3.3928557756        0.0106945475
 H          6.4095064210       -2.2110711339        1.1587311032
 H          5.2637580618       -2.6758603267       -1.6292598084
 H          4.6833596521       -3.4723110384       -0.1567319135
 O          3.3828496280       -1.7379485887        0.7844207083
 C          2.4542242144       -0.8196134240        1.2411735939
 O          1.7811076867       -1.2150962838        2.2161130118
 O          3.0696905670        1.8232642204       -1.1648949942
 C          1.2901192269        1.3494921170        1.1687954409
 C         -0.0164743333        1.0868909458        0.4658028211
 C         -0.1356338053        1.2389889816       -0.9129211246
 C         -1.3323642357        0.9581045127       -1.5451243357
 C         -2.4273539823        0.5128372601       -0.8237643283
 C         -2.3108276442        0.3331352192        0.5473753346
 C         -1.1113802460        0.6303885776        1.1831672535
 H         -1.0196810065        0.4765874432        2.2500749700
 N         -3.4134488334       -0.1225954619        1.2874657606
 S         -4.3219907618       -1.4007245036        0.6895669228
 O         -4.9630535432       -1.9777720324        1.8507819828
 O         -3.5235646268       -2.2956659650       -0.1155840943
 C         -5.5576828465       -0.6043988734       -0.3166437905
 C         -6.2832211010        0.4320471393        0.2376810104
 C         -7.2557549797        1.0529837770       -0.5295492278
 C         -7.4881203222        0.6274058953       -1.8290423896
 C         -6.7543404000       -0.4173136172       -2.3695600711
 C         -5.7787973451       -1.0418778362       -1.6078528880
 H         -5.1788286013       -1.8531764931       -1.9887900421
 H         -6.9363955528       -0.7474643449       -3.3796856893
 H         -8.2453652356        1.1127825927       -2.4242487376
 H         -7.8282568554        1.8658932343       -0.1128382585
 H         -6.0739466355        0.7316221438        1.2508949156
 H         -3.2216455045       -0.2469262658        2.2711586813
 H         -3.3584878642        0.2848562212       -1.3160242220
 H         -1.4149542330        1.0839191596       -2.6140831954
 H          0.7226909665        1.5709492349       -1.4774299793
 H          1.1686688392        1.0374057518        2.2182720369
 C          1.7097998012        2.8130261729        1.1768237120
 C          1.0001268483        3.8899545044        0.4173884972
 C          0.8662802599        3.8171034666        1.9064991160
 H          1.3554096763        4.5637997706        2.5135397523
 H         -0.0760295121        3.4712178247        2.3051090791
 H          1.6041254318        4.6738783853       -0.0133384508
 H          0.1458172453        3.6193655339       -0.1821964264
 H          2.7843541913        2.9262378812        1.2717236976
