  62
        -98.93849503
 C         -1.0919562902       -1.4200784382        0.2774202135
 C         -1.3538512093       -0.5107290265       -0.7734729322
 C         -2.3464396220        0.5479604706       -0.4899732273
 C         -2.9114603989        0.6161731587        0.7270851922
 C         -3.9592827220        1.5858361577        1.2004353606
 C         -5.3663101148        0.9900654596        1.0256729945
 C         -5.9982679509        1.2227272084       -0.3460971836
 H         -6.9215108705        0.6399130306       -0.3820613062
 H         -6.2722485999        2.2755297856       -0.4415395139
 C         -5.1265137727        0.8354172100       -1.5437258945
 H         -4.6360083103       -0.1203450013       -1.3502404948
 H         -5.7839622783        0.6915401684       -2.4034147656
 C         -4.0771217828        1.9004559332       -1.8961800320
 H         -4.1414062511        2.1320987260       -2.9614436259
 H         -4.3144065479        2.8227088627       -1.3659031013
 C         -2.6180909413        1.5065125412       -1.6175201849
 H         -2.0281971083        2.4161389777       -1.4567725485
 H         -2.1972285395        1.0203399881       -2.5038324267
 H         -5.3025095409       -0.0827231462        1.2247070488
 H         -6.0268082290        1.4232702305        1.7793654794
 H         -3.8687758490        2.5370310701        0.6838340707
 H         -3.7805632759        1.7425897751        2.2663955641
 O         -2.6177179569       -0.2689306500        1.7179283152
 C         -1.7236676684       -1.3017285941        1.5198406492
 O         -1.5755234287       -2.0452556132        2.5092749283
 O         -0.8058085832       -0.5550318408       -1.9072286954
 C         -0.1168429662       -2.5817885815        0.1673955064
 C          1.2885072941       -2.1443728464        0.5100201224
 C          1.9222730747       -2.6740580704        1.6285992364
 C          3.2146207658       -2.3027203833        1.9505087231
 C          3.8940572081       -1.3904988754        1.1652897893
 C          3.2687441799       -0.8480191672        0.0474087452
 C          1.9720996879       -1.2253691697       -0.2763098246
 H          1.5005604536       -0.8006566927       -1.1491136674
 N          3.9587327205        0.0702640068       -0.7605376934
 S          3.2013402498        1.4555639814       -1.3098137384
 O          2.3260926035        1.1522653271       -2.4097038075
 O          4.2955205083        2.3583523154       -1.6018776756
 C          2.2875612933        2.0606616663        0.0963614733
 C          2.9978374893        2.6310531507        1.1351612379
 C          2.3117283359        3.0688384341        2.2554914801
 C          0.9336475027        2.9249545401        2.3197386917
 C          0.2358089032        2.3537670002        1.2674812120
 C          0.9174334983        1.9148178467        0.1429213806
 H          0.4085387834        1.4644316139       -0.6940126776
 H         -0.8360699568        2.2370016487        1.3153249203
 H          0.3971880390        3.2610103540        3.1930581652
 H          2.8494890383        3.5180920719        3.0747403065
 H          4.0662385282        2.7381066698        1.0408195183
 H          4.8915466629        0.2828917431       -0.4366634329
 H          4.9042027697       -1.0993746978        1.4097808166
 H          3.6949987204       -2.7238587477        2.8202787146
 H          1.3868634218       -3.3743522278        2.2525958943
 H         -0.4324303099       -3.2979743167        0.9389505689
 C         -0.1478534998       -3.2914612920       -1.1714675022
 C          0.3007912081       -4.7190942941       -1.2409496709
 C         -1.1507293823       -4.3804257780       -1.3986063679
 H         -1.6017125185       -4.4686392126       -2.3756130304
 H         -1.8212117464       -4.6201177783       -0.5857062737
 H          0.8511390154       -5.0427147938       -2.1110180819
 H          0.6125602929       -5.1921068513       -0.3219060195
 H          0.0852482338       -2.6492715440       -2.0101788306
