  62
        -98.94564841
 C          1.4384115085        1.2735603547        0.1025921624
 C          1.5775858129       -0.0241634242       -0.4500147637
 C          2.7251265140       -0.8049679521        0.0345031339
 C          3.5501248036       -0.2931943657        0.9638837072
 C          4.7433430291       -0.9805886920        1.5703865724
 C          6.0188793268       -0.8829977154        0.7220386612
 C          6.0290470224       -1.7421728847       -0.5431563177
 H          7.0550244291       -1.7489959949       -0.9166538995
 H          5.7697772187       -2.7694501239       -0.2849190630
 C          5.1015013886       -1.2399474313       -1.6584397991
 H          5.6346462172       -1.2604681229       -2.6115416573
 H          4.8298388860       -0.1997897067       -1.4648178412
 C          3.8228397776       -2.0589098635       -1.8370879794
 H          4.0766843065       -3.0704413975       -2.1620297951
 H          3.2231206121       -1.5925639045       -2.6225726460
 C          2.9573443259       -2.1548682271       -0.5742734918
 H          1.9825817024       -2.5676592557       -0.8477747502
 H          3.4210599348       -2.8232831970        0.1513637278
 H          6.8535599435       -1.1956317068        1.3537384814
 H          6.1792435521        0.1636634981        0.4533077990
 H          4.5061101925       -2.0286647559        1.7569348935
 H          4.9285848776       -0.4912948536        2.5292584322
 O          3.3739472928        0.9494653797        1.4870648131
 C          2.3303027180        1.7552686357        1.0655729359
 O          2.3025698497        2.8771114597        1.6128284581
 O          0.8034278815       -0.5296743083       -1.3039940798
 C          0.3192279768        2.2332238809       -0.2619129174
 C         -0.9147220625        2.0211983422        0.5863721292
 C         -1.6898908432        3.1083252410        0.9764663442
 C         -2.8313427889        2.9239320915        1.7342476136
 C         -3.2286863135        1.6529482502        2.1086846340
 C         -2.4595203077        0.5592291984        1.7284240576
 C         -1.3109392424        0.7500637763        0.9718817710
 H         -0.7179316042       -0.1084873424        0.7026882687
 N         -2.8247515466       -0.7377466126        2.1144166842
 S         -2.6090073185       -2.0290215238        1.0706821152
 O         -3.4957608513       -3.0478740471        1.5949767299
 O         -1.2165987512       -2.3885291043        0.9985440807
 C         -3.2340340681       -1.4478677744       -0.4948727579
 C         -4.6049015598       -1.3078384495       -0.6062980368
 C         -5.1372807478       -0.8105300767       -1.7834178776
 C         -4.2922065760       -0.4587699237       -2.8255930164
 C         -2.9210720104       -0.6103131716       -2.6986922243
 C         -2.3794379097       -1.1087572200       -1.5226062069
 H         -1.3137449277       -1.2245008875       -1.3987199299
 H         -2.2602425038       -0.3402217047       -3.5073503943
 H         -4.7040106453       -0.0666080287       -3.7421612286
 H         -6.2044806903       -0.6964256592       -1.8849272219
 H         -5.2271235753       -1.6061252206        0.2219447385
 H         -3.7065654661       -0.8010349517        2.6015288168
 H         -4.1178443299        1.5058998160        2.7023219353
 H         -3.4193786692        3.7768582219        2.0364728126
 H         -1.3823562855        4.1044095464        0.6966019419
 H          0.7038137140        3.2380493258       -0.0360207048
 C         -0.0671051863        2.1883385605       -1.7290106396
 C         -0.6011278035        3.4185801335       -2.3955259548
 C          0.7698122255        2.9168313358       -2.7351918479
 H          0.9349198509        2.4559170933       -3.6972669426
 H          1.6215568363        3.4709807783       -2.3671805077
 H         -1.3864315688        3.3054540289       -3.1266328173
 H         -0.6734434739        4.3214366080       -1.8089036972
 H         -0.4816150893        1.2349571354       -2.0268300525
