  62
        -98.94331120
 C          1.1153014735        0.6805452969        0.9010652450
 C          1.7190210425        0.6852450115       -0.3813461415
 C          2.4212399263       -0.5486702409       -0.7604109082
 C          2.3637620982       -1.6287724540        0.0366132625
 C          2.9979003581       -2.9666599018       -0.2315856803
 C          4.4784107260       -3.0480861095        0.1661056922
 C          5.4414031035       -2.2829132475       -0.7425983775
 H          6.4515139955       -2.6038296894       -0.4804921934
 H          5.2663464512       -2.5717237108       -1.7794451252
 C          5.3592222709       -0.7557185352       -0.6110878241
 H          6.3672911023       -0.3408133920       -0.5437326495
 H          4.8436627645       -0.4973388567        0.3166632395
 C          4.6583517553       -0.0567998510       -1.7762002615
 H          5.2369193456       -0.1995391031       -2.6915497726
 H          4.6243615283        1.0148284077       -1.5636317467
 C          3.2222906122       -0.5362823275       -2.0267220786
 H          2.7377114273        0.1600548502       -2.7160338855
 H          3.2276278231       -1.5263761515       -2.4829795207
 H          4.5837906996       -2.6895471536        1.1926790953
 H          4.7607287172       -4.1033221387        0.1516835548
 H          2.4413527361       -3.6986699505        0.3581004320
 H          2.8855013604       -3.2175763026       -1.2870667681
 O          1.6755569448       -1.6310508504        1.2094811985
 C          1.0517300672       -0.4815539942        1.6723099808
 O          0.4692439736       -0.6278182887        2.7660768674
 O          1.6907469233        1.6605905385       -1.1751391070
 C          0.3524353209        1.8859348504        1.4295810910
 C         -0.5989656062        2.3488294296        0.3540100795
 C         -0.6207263339        3.6246878856       -0.1898507892
 C         -1.4934903257        3.9218135817       -1.2232072072
 C         -2.3402996026        2.9594209522       -1.7412714589
 C         -2.3313907307        1.6799679998       -1.1945786610
 C         -1.4882721148        1.3996053007       -0.1347212727
 H         -1.4740587329        0.4070261520        0.2894847331
 N         -3.1811886586        0.6771735721       -1.6807580474
 S         -2.7891350711       -0.9410033331       -1.5370660709
 O         -1.3729343853       -1.1886541414       -1.6793862014
 O         -3.6457901636       -1.5937362763       -2.5058398993
 C         -3.3499132155       -1.3610744890        0.0996217123
 C         -4.6671441233       -1.0959340773        0.4200939055
 C         -5.1229549291       -1.4068298751        1.6906252349
 C         -4.2579893656       -1.9719121079        2.6161946907
 C         -2.9400592366       -2.2370349507        2.2782415342
 C         -2.4808069373       -1.9327175025        1.0064663659
 H         -1.4569329859       -2.1149906079        0.7145993547
 H         -2.2578066842       -2.6634731041        2.9963409337
 H         -4.6099753493       -2.2072536208        3.6081780807
 H         -6.1474454297       -1.2040537925        1.9580728801
 H         -5.3059109908       -0.6562675267       -0.3275142376
 H         -3.6589988840        0.8900356619       -2.5434617086
 H         -2.9957018244        3.1882593146       -2.5676884600
 H         -1.4978098084        4.9143711036       -1.6478964412
 H          0.0650998047        4.3746610339        0.1685714342
 H         -0.2517048311        1.4919014627        2.2638782869
 C          1.2202667638        2.9915281096        2.0084957554
 C          2.5651278174        2.6822609925        2.5944123678
 C          2.4634223691        3.4844611967        1.3337614104
 H          2.6852564223        4.5407200081        1.3825304041
 H          2.7427198807        3.0222520460        0.4009467111
 H          2.8578482434        3.1831339213        3.5049968791
 H          2.9152484631        1.6622093159        2.5241539562
 H          0.6277641646        3.7330662536        2.5356548564
