  62
        -98.94303398
 C          1.9587218961        0.0985288678       -0.2820021150
 C          2.8222821146       -0.7162690467        0.4909770169
 C          4.1462657011       -0.1475155841        0.7804431239
 C          4.4571396308        1.0912227160        0.3608687143
 C          5.7531249799        1.8143974830        0.6080907846
 C          6.8630108831        1.4654224116       -0.3930441202
 C          7.4749689538        0.0737950048       -0.2271475050
 H          8.3761770865        0.0452920254       -0.8429160535
 H          7.7846631616       -0.0641045521        0.8092577272
 C          6.5522294415       -1.0782400110       -0.6489490889
 H          5.7423419563       -0.6874722043       -1.2693720095
 H          7.1122619580       -1.7865060750       -1.2637643787
 C          5.9488243162       -1.8656588606        0.5141384936
 H          5.2856693394       -2.6302623118        0.1019989468
 H          6.7444578434       -2.3712031689        1.0658149582
 C          5.1364612709       -1.0143832828        1.4986080704
 H          4.5767581741       -1.6867665381        2.1530488778
 H          5.8029213981       -0.4057914098        2.1091141472
 H          6.4656034621        1.5708542523       -1.4052967356
 H          7.6571426500        2.2055087015       -0.2698016122
 H          5.5344716306        2.8810108707        0.5217898061
 H          6.0989646189        1.6117871750        1.6221225543
 O          3.5861729680        1.8599516900       -0.3461216667
 C          2.3395285476        1.3765862142       -0.7031237024
 O          1.6655398668        2.1712617167       -1.3909045021
 O          2.5291097103       -1.8583232083        0.9309779197
 C          0.5682285054       -0.3384190789       -0.7176289767
 C         -0.4417887547       -0.1311372914        0.3856261899
 C         -0.3504791295       -0.8130110974        1.5953967318
 C         -1.2853563562       -0.5996697784        2.5909890416
 C         -2.3384611347        0.2771143895        2.3945950846
 C         -2.4407336588        0.9604354731        1.1896400521
 C         -1.4894641169        0.7587459884        0.1981172771
 H         -1.5745800848        1.3094209198       -0.7268580493
 N         -3.5033025066        1.8548667066        0.9538928776
 S         -4.4777450306        1.5922523477       -0.3820870828
 O         -3.7204375824        1.7817608091       -1.5919457254
 O         -5.6162562555        2.4622119404       -0.1899992747
 C         -4.9824472120       -0.1118459841       -0.2252780047
 C         -6.1688922014       -0.3980001711        0.4217577601
 C         -6.5269834160       -1.7228425966        0.6116824227
 C         -5.6900644567       -2.7343016891        0.1649540704
 C         -4.5009273470       -2.4305989580       -0.4798615954
 C         -4.1405984372       -1.1074290554       -0.6799002093
 H         -3.2245784401       -0.8368130238       -1.1786949225
 H         -3.8480258404       -3.2154804695       -0.8262040001
 H         -5.9656367735       -3.7656927398        0.3184533254
 H         -7.4529853913       -1.9620368556        1.1092872886
 H         -6.7897589004        0.4201913369        0.7493407227
 H         -4.0813659119        2.0214867122        1.7659218462
 H         -3.0714786709        0.4385755791        3.1706614667
 H         -1.1986620321       -1.1282564115        3.5280498618
 H          0.4695701520       -1.4967512246        1.7509907413
 H          0.2958655077        0.3319414236       -1.5447334152
 C          0.5258940291       -1.7658880225       -1.2282531656
 C         -0.5219618535       -2.1491990027       -2.2274030883
 C          0.9131357114       -2.0439598544       -2.6477833652
 H          1.4583536391       -2.9499810002       -2.8653876365
 H          1.2042015725       -1.2022618656       -3.2602550842
 H         -0.9651417910       -3.1307130917       -2.1601537191
 H         -1.2002339340       -1.3791645083       -2.5658082258
 H          0.8097811799       -2.4988570747       -0.4852458545
