  62
        -98.94475308
 C          1.6265199311        1.4426628896       -0.2433642794
 C          2.7512436906        0.8788708387        0.3966286406
 C          3.2401128798       -0.4035404515       -0.1363954195
 C          2.6035453896       -0.9723030909       -1.1776186796
 C          2.8804030688       -2.2546437610       -1.9344369698
 C          3.8189831480       -3.3129226517       -1.3618028598
 C          3.3037839975       -4.0063297915       -0.1010169400
 H          2.4461653171       -4.6279534409       -0.3709867501
 H          4.0907673070       -4.6662003221        0.2718391800
 C          2.8559266380       -3.0818020814        1.0289150601
 H          1.9881654084       -2.4980588208        0.7106259501
 H          2.5188006375       -3.7099234813        1.8590546300
 C          3.9324851586       -2.1407615222        1.5675404003
 H          3.5259279488       -1.6576383220        2.4605792704
 H          4.8078784482       -2.7198960928        1.8694933303
 C          4.3858259394       -1.0287712624        0.6057904605
 H          5.1438567492       -1.3879551928       -0.0861020695
 H          4.8367645298       -0.2305685927        1.2030751007
 H          3.9329845076       -4.0783963417       -2.1344160599
 H          4.8045141583       -2.8906778024       -1.1886179397
 H          1.8983064285       -2.7067343104       -2.1075619999
 H          3.2600005191       -1.9481743711       -2.9157637397
 O          1.5393743800       -0.3728244202       -1.7841724996
 C          0.9987808007        0.8075613201       -1.3121902195
 O         -0.0160129990        1.1916646609       -1.9269757496
 O          3.3243168509        1.4223535182        1.3814953208
 C          1.0065613819        2.7109527399        0.3130696507
 C         -0.4248568484        2.4373796508        0.7069980506
 C         -1.4652995577        3.3331923915        0.4939164006
 C         -2.7626540580        3.0002038523        0.8454854005
 C         -3.0551644189        1.7615951224        1.3869151803
 C         -2.0189580095        0.8636463617        1.6131482602
 C         -0.7168626692        1.2194318309        1.3077283504
 H          0.0740647003        0.5085056004        1.4977340904
 N         -2.2514158804       -0.4338623382        2.1207230600
 S         -1.9432365311       -1.6893985982        1.0471008099
 O         -2.3146734720       -2.8942274581        1.7588306197
 O         -0.5844799310       -1.6189072191        0.5787463700
 C         -3.1074890108       -1.4034116373       -0.2742437202
 C         -4.3255389412       -2.0552519265       -0.2234104203
 C         -5.2777222010       -1.7783481458       -1.1902085004
 C         -5.0013165603       -0.8476217058       -2.1808975602
 C         -3.7762834098       -0.2001494466       -2.2148922700
 C         -2.8148297101       -0.4753498574       -1.2533237600
 H         -1.8527490098        0.0141750120       -1.2691686299
 H         -3.5527979293        0.5240922733       -2.9817871499
 H         -5.7433501601       -0.6257217952       -2.9316216003
 H         -6.2297226513       -2.2837534951       -1.1663255205
 H         -4.4927875218       -2.7714127665        0.5651025995
 H         -3.1795579705       -0.5574158876        2.5035812100
 H         -4.0712730991        1.4881196831        1.6287718101
 H         -3.5599884075        3.7067261829        0.6729788205
 H         -1.2611338071        4.2909129814        0.0435657008
 H          1.5809302319        2.9470079894        1.2216976108
 C          1.1505505027        3.8556269999       -0.6683030891
 C          1.2838741136        5.2655265198       -0.1769602889
 C          2.4684578232        4.5619670291       -0.7655001889
 H          2.8206963534        4.8650509090       -1.7399670288
 H          3.2541275829        4.2339404585       -0.1005425989
 H          0.8245432841        6.0567578002       -0.7500701488
 H          1.2717589936        5.4269744797        0.8903644111
 H          0.6068639327        3.6809105004       -1.5900293792
