  62
        -98.94380187
 C          1.8821862821        0.6184477301        0.7222329649
 C          2.2961075237       -0.5070409272       -0.0301800005
 C          3.7432254537       -0.7588981189       -0.0500753211
 C          4.5734052974        0.0431315688        0.6414125892
 C          6.0674872796       -0.1042894413        0.7438500052
 C          6.8393593339        0.5219037831       -0.4255005249
 C          6.7435407551       -0.2387304594       -1.7485296438
 H          7.4979911946        0.1824667612       -2.4159245053
 H          7.0021848899       -1.2852689452       -1.5844399059
 C          5.3727909589       -0.1467929573       -2.4334659984
 H          5.5097779391        0.0697624655       -3.4953659884
 H          4.8072833997        0.6853169700       -2.0078165784
 C          4.5285611356       -1.4177287363       -2.3365126943
 H          3.5674488352       -1.2293868929       -2.8221896071
 H          5.0235908702       -2.2289316872       -2.8752090116
 C          4.2493293897       -1.8838143636       -0.9015340598
 H          3.4704488076       -2.6498972646       -0.9350791100
 H          5.1489041078       -2.3181176172       -0.4655553199
 H          6.4875101878        1.5462120136       -0.5677836117
 H          7.8909733590        0.5690783824       -0.1335503108
 H          6.3263940674       -1.1600713101        0.8283091070
 H          6.3667340889        0.4022413285        1.6639447478
 O          4.1310898757        1.1025717882        1.3699373408
 C          2.7845046728        1.4261043883        1.4141423461
 O          2.5194284027        2.4325858302        2.1023886548
 O          1.5033796892       -1.2662508990       -0.6466608695
 C          0.4111879903        0.9848963326        0.7902358789
 C         -0.4025549348       -0.1798132889        1.2989239016
 C          0.0545115021       -0.8962873705        2.4019615145
 C         -0.6609947816       -1.9717356663        2.8904710406
 C         -1.8528437200       -2.3493573316        2.2979331597
 C         -2.3305518415       -1.6273593761        1.2104696410
 C         -1.6103352082       -0.5442688542        0.7236530940
 H         -1.9875689318       -0.0102527004       -0.1318471629
 N         -3.5636314703       -1.9557695076        0.6409638329
 S         -4.0853293499       -1.4340996426       -0.8488610879
 O         -5.2926568484       -2.1992462138       -1.0809298004
 O         -3.0700400514       -1.5425904797       -1.8696975610
 C         -4.5217494645        0.2749123682       -0.5955177304
 C         -5.0145617388        0.6795117355        0.6291395488
 C         -5.3821950684        2.0049689198        0.7978357727
 C         -5.2616569098        2.8978334796       -0.2558293437
 C         -4.7728564267        2.4748759827       -1.4818894790
 C         -4.3979963702        1.1516657631       -1.6550436134
 H         -4.0015305748        0.7828384994       -2.5880816152
 H         -4.6802079744        3.1699290363       -2.3012666095
 H         -5.5486121743        3.9287728156       -0.1216499737
 H         -5.7613453826        2.3372424664        1.7508399340
 H         -5.0957750962       -0.0365280180        1.4296158941
 H         -3.9835871867       -2.8216025235        0.9399868121
 H         -2.4084910714       -3.1951891979        2.6725570629
 H         -0.2862959236       -2.5254586596        3.7383170166
 H          0.9890606892       -0.6058413831        2.8629048740
 H          0.3353964805        1.8011110217        1.5241427532
 C         -0.0548117869        1.4990126851       -0.5566541320
 C         -1.1349089286        2.5341673141       -0.6400659485
 C          0.2837328524        2.9046105024       -0.9493975512
 H          0.5557752494        3.1023671175       -1.9754060497
 H          0.8280606710        3.4995715453       -0.2302650191
 H         -1.8398722130        2.4760945590       -1.4554786735
 H         -1.5620859807        2.8880151566        0.2859580494
 H         -0.0144765513        0.7381463655       -1.3290149174
