  62
        -98.94122931
 C          2.2366296595        0.9290225572       -0.0930043376
 C          2.9469235197        0.4191315716        1.0257992982
 C          3.7885696841       -0.7570498731        0.7857167829
 C          3.8230746880       -1.3100688119       -0.4397258902
 C          4.6118174861       -2.5261064236       -0.8433765765
 C          6.0749174082       -2.2310410291       -1.2016916156
 C          6.9810401941       -1.8978817693       -0.0157524929
 H          6.8799260398       -2.6721736299        0.7453068440
 H          8.0097249425       -1.9311058146       -0.3800356325
 C          6.7236530689       -0.5203353322        0.6108520020
 H          7.6758882476       -0.0105852177        0.7734021769
 H          6.1464720352        0.0937176011       -0.0843132739
 C          5.9964886583       -0.5607742307        1.9549636720
 H          6.6236510306       -1.0607384871        2.6962663979
 H          5.8346235467        0.4673196311        2.2884419935
 C          4.6336771626       -1.2646509733        1.9147892881
 H          4.1065056232       -1.0479205959        2.8470870851
 H          4.7687151146       -2.3430533822        1.8324997480
 H          6.4732641534       -3.1190464716       -1.6978625000
 H          6.0989705409       -1.4094350781       -1.9213216926
 H          4.5729767458       -3.2683805468       -0.0454258822
 H          4.1169811222       -2.9386574750       -1.7254533640
 O          3.1015301297       -0.8170032464       -1.4791628412
 C          2.3040776859        0.3145924118       -1.3435578690
 O          1.7267217883        0.6389828393       -2.3991101464
 O          2.8831196179        0.9331147951        2.1741221161
 C          1.3939052729        2.1702318454        0.1484287207
 C         -0.0352140501        1.7993868381        0.4517923543
 C         -0.6603237250        2.2388896636        1.6123671348
 C         -1.9671765775        1.8754199025        1.8886630479
 C         -2.6763935650        1.0715292877        1.0143916161
 C         -2.0578211925        0.6201365696       -0.1443572516
 C         -0.7480418944        0.9850770289       -0.4181252230
 H         -0.2704904791        0.6303437740       -1.3200776778
 N         -2.7702574311       -0.1936931578       -1.0449967488
 S         -3.4864788051       -1.5830931991       -0.4273803798
 O         -2.7818820979       -2.0666891135        0.7382641257
 O         -3.5835097408       -2.4945030052       -1.5466180577
 C         -5.1229658790       -1.0447041560        0.0237066979
 C         -5.5712660411       -1.2063001407        1.3199719411
 C         -6.8503798651       -0.7809327438        1.6441701303
 C         -7.6537280737       -0.2054303065        0.6717009781
 C         -7.1894197997       -0.0531614900       -0.6264766055
 C         -5.9124591307       -0.4772541162       -0.9574519993
 H         -5.5144508087       -0.3817485817       -1.9539049506
 H         -7.8170538084        0.3942479060       -1.3802396845
 H         -8.6478669183        0.1260392582        0.9268895979
 H         -7.2131834518       -0.8992217094        2.6525255357
 H         -4.9087325212       -1.6540429492        2.0435973358
 H         -2.2427118603       -0.4135557074       -1.8784800904
 H         -3.6939278702        0.7848497959        1.2239270371
 H         -2.4393318250        2.2219355501        2.7951265150
 H         -0.1087592470        2.8544218605        2.3077591615
 H          1.8177224946        2.6151834620        1.0626212074
 C          1.5232905229        3.2062250460       -0.9605996854
 C          0.4099721548        3.5827405726       -1.8872763451
 C          0.8466202907        4.5379914199       -0.8201581473
 H          1.3872996602        5.4273532802       -1.1059078271
 H          0.1899177868        4.6701368258        0.0265345117
 H          0.6676728740        3.7922913495       -2.9143146893
 H         -0.5429583120        3.0912134855       -1.7721060570
 H          2.5205249072        3.2114766509       -1.3895490386
