  62
        -98.93790439
 C          1.6836342893        0.9578970105       -0.0275751093
 C          3.0107131993        1.2438139507        0.3635268605
 C          4.0115428394        0.1857211607        0.1313909806
 C          3.6126600794       -0.9834864394       -0.4013824792
 C          4.4381874195       -2.2006850894       -0.7345120490
 C          5.4827071896       -2.6353954292        0.3050568610
 C          6.9250794195       -2.3896186791       -0.1414113092
 H          7.5799078196       -3.0775667290        0.3980781309
 H          7.0056425294       -2.6297185993       -1.2036722792
 C          7.4475926894       -0.9738572691        0.0966882505
 H          8.4220197094       -0.8947162591       -0.3911323096
 H          7.6073161095       -0.8223143189        1.1664770705
 C          6.5480747093        0.1505291708       -0.4203211196
 H          7.1701863492        1.0364760108       -0.5646273998
 H          6.1342936392       -0.1084971294       -1.3943157195
 C          5.4163801994        0.5264991609        0.5479900204
 H          5.6089245795        0.0920373610        1.5331640305
 H          5.4047204993        1.6108610209        0.6960690103
 H          5.2900150496       -2.1396327090        1.2550653409
 H          5.3609339297       -3.7071826191        0.4698779511
 H          4.9232621194       -2.0348620795       -1.6998076391
 H          3.7111895195       -3.0016227595       -0.8866005988
 O          2.3158655194       -1.2178687796       -0.7549508290
 C          1.3256655493       -0.2653809296       -0.5898978491
 O          0.1956873593       -0.6259661298       -0.9681694689
 O          3.3494585793        2.3393131508        0.8883234903
 C          0.6118824792        2.0152280304        0.1624108206
 C         -0.5183073207        1.4654021105        0.9957107808
 C         -0.2233646905        0.8902571707        2.2302697309
 C         -1.2243108004        0.3691737208        3.0258313310
 C         -2.5428464205        0.4027526006        2.6043717011
 C         -2.8493397106        0.9804085304        1.3794018411
 C         -1.8415333007        1.5182580303        0.5884782109
 H         -2.1120846008        1.9549592702       -0.3576082092
 N         -4.1826969306        1.0559765602        0.9338186912
 S         -4.6101612607        0.4045005099       -0.5482907787
 O         -3.8577947509        1.0361577198       -1.5999732789
 O         -6.0477747907        0.5571199698       -0.6113332086
 C         -4.2086644606       -1.3291475700       -0.4179725984
 C         -2.8929822506       -1.7353729799       -0.5171202685
 C         -2.6005184604       -3.0808925299       -0.3504754383
 C         -3.6147135604       -3.9891853399       -0.0909474080
 C         -4.9311111204       -3.5628761400        0.0047223220
 C         -5.2317782305       -2.2204274000       -0.1545807982
 H         -6.2398256705       -1.8432551801       -0.0917037882
 H         -5.7199391603       -4.2703155300        0.2039969322
 H         -3.3770288203       -5.0337594799        0.0358403321
 H         -1.5728217204       -3.3993419598       -0.4268750183
 H         -2.1093783506       -1.0233759999       -0.7241314787
 H         -4.8585753706        0.7675046203        1.6278172613
 H         -3.3269711104       -0.0103782093        3.2206913613
 H         -0.9778598003       -0.0737475490        3.9789690111
 H          0.8079495295        0.8565004509        2.5548090108
 H          1.0955486692        2.8252549506        0.7284553204
 C          0.1689145191        2.5602032302       -1.1790402595
 C         -0.3630144510        3.9570363101       -1.2858532897
 C          0.9899726989        3.6258009801       -1.8382505197
 H          1.1169467588        3.5902123900       -2.9099230397
 H          1.8611459689        3.9794556403       -1.3062389498
 H         -1.1704256511        4.1467999600       -1.9772787196
 H         -0.4113337510        4.5436441503       -0.3808317397
 H         -0.2678624209        1.8007726200       -1.8192260693
