  62
        -98.94413637
 C         -1.8468308858       -1.3466297265        0.1223921736
 C         -2.0261036097       -0.3581329386       -0.8755210996
 C         -3.3774434577        0.2141589754       -0.9808687919
 C         -4.3484123646       -0.2101593395       -0.1530491501
 C         -5.7478613760        0.3300197694       -0.1176579279
 C         -5.8720175217        1.4913389895        0.8785396621
 C         -4.7907079689        2.5603787052        0.7201941696
 H         -4.9985338514        3.3439156165        1.4521953037
 H         -3.8211381592        2.1288240368        0.9802469422
 C         -4.7101176350        3.1796849666       -0.6821700731
 H         -4.6159457644        4.2630612952       -0.5813232298
 H         -5.6344791809        2.9847884162       -1.2271523036
 C         -3.5196607211        2.7052288697       -1.5176363862
 H         -2.6000917618        2.8133187441       -0.9363600793
 H         -3.4340855196        3.3602146364       -2.3889296048
 C         -3.5996807746        1.2631289625       -2.0344635713
 H         -4.5552632871        1.1062777389       -2.5385703339
 H         -2.7986184220        1.1283786474       -2.7669972058
 H         -6.8565458709        1.9466422034        0.7568453848
 H         -5.8073393450        1.0875006297        1.8915860974
 H         -6.0296236610        0.6617595390       -1.1151287334
 H         -6.4183457947       -0.4738802576        0.1907984667
 O         -4.1443064087       -1.1636457745        0.7898658541
 C         -2.9011753442       -1.7478959937        0.9513005146
 O         -2.8580701139       -2.6098337973        1.8516287498
 O         -1.1204273488        0.0497968967       -1.6525751419
 C         -0.5284354289       -2.0649117861        0.3691590099
 C          0.4380800205       -1.2260143874        1.1696521795
 C          0.9719507670       -1.6912170431        2.3654056293
 C          1.8911114628       -0.9336679557        3.0714222674
 C          2.2935246060        0.3043873191        2.6024283301
 C          1.7574810514        0.7802587254        1.4135992536
 C          0.8457856807        0.0153293627        0.7024574174
 H          0.4425330215        0.3886788994       -0.2273075637
 N          2.1725358230        2.0383647394        0.9154325926
 S          3.7601107923        2.0681129665        0.3743991823
 O          4.6389719885        1.9456151849        1.5094755596
 O          3.8907004994        3.2752856663       -0.4093563099
 C          3.8946794935        0.6265784452       -0.6662836777
 C          4.2902644449       -0.5732381129       -0.1102250193
 C          4.3050208823       -1.7059869023       -0.9075391539
 C          3.9230735411       -1.6196648111       -2.2373630521
 C          3.5245293222       -0.4078156075       -2.7797880710
 C          3.5034109713        0.7272905465       -1.9861608828
 H          3.2013503744        1.6887018968       -2.3702507443
 H          3.2232730279       -0.3449804254       -3.8132569940
 H          3.9375625323       -2.5018466483       -2.8584125177
 H          4.6086424986       -2.6512879549       -0.4875779927
 H          4.5819292294       -0.5970886548        0.9268908729
 H          1.5733916182        2.3692773604        0.1708455537
 H          3.0195861775        0.9023345594        3.1291764021
 H          2.2977743149       -1.3103436382        3.9976060727
 H          0.6555886653       -2.6514250254        2.7458688112
 H         -0.7856082802       -2.9463870122        0.9711280978
 C          0.1386055743       -2.5378612896       -0.9097244772
 C          1.0617682713       -3.7155053529       -0.8529410614
 C         -0.2784269776       -3.8443253293       -1.5113341117
 H         -0.3234338851       -3.9243376586       -2.5869359568
 H         -1.0479205268       -4.4055709231       -1.0007704047
 H          1.9413315042       -3.7069927713       -1.4765965244
 H          1.2026912515       -4.1952990290        0.1035373709
 H          0.3876589388       -1.7327178476       -1.5882081736
