  62
        -98.94527022
 C         -2.1448290330       -0.8706718632        0.0778375288
 C         -2.8961664658       -0.2609119314        1.1098759650
 C         -3.6302896224        0.9559668007        0.7385011349
 C         -3.5152688533        1.4362211685       -0.5133800023
 C         -4.2437776666        2.6383643259       -1.0392652173
 C         -5.5843544716        2.2419013548       -1.6737969594
 C         -6.4363063700        1.3249068685       -0.7961206658
 H         -7.3689518667        1.1372536148       -1.3323870378
 H         -5.9287373554        0.3636743357       -0.6876457248
 C         -6.7516230624        1.8911273759        0.5954273902
 H         -6.5859610154        2.9690425066        0.6030163233
 H         -7.8092159054        1.7240646186        0.8097027719
 C         -5.9598788401        1.2488701761        1.7359433658
 H         -6.0472206101        0.1611785422        1.6751446571
 H         -6.4111080558        1.5613229106        2.6813893708
 C         -4.4702976414        1.6094639157        1.7998388257
 H         -4.3522512846        2.6947453655        1.7720697957
 H         -4.0809837024        1.2458309197        2.7554677903
 H         -5.3814369973        1.7245819294       -2.6143315011
 H         -6.1409965908        3.1530908355       -1.9002987018
 H         -3.6186258138        3.1141445063       -1.7970121492
 H         -4.4087289659        3.3419482289       -0.2253957155
 O         -2.7477758504        0.8476139240       -1.4665906782
 C         -2.0529032218       -0.3246790309       -1.2027488513
 O         -1.4037164653       -0.7663772551       -2.1691347090
 O         -2.9438420990       -0.7088022064        2.2879128456
 C         -1.3774304985       -2.1445517345        0.3807255253
 C          0.0973072801       -1.9406028825        0.1334242593
 C          0.8931038168       -2.8572006267       -0.5407891815
 C          2.2389577943       -2.6026676233       -0.7417860489
 C          2.8211371822       -1.4399247913       -0.2725716423
 C          2.0355410318       -0.5176772950        0.4065979430
 C          0.6896714764       -0.7777243018        0.6105989079
 H          0.0793052501       -0.0545901713        1.1387839838
 N          2.6180532144        0.6633783861        0.9009319664
 S          3.5421417881        1.5903171469       -0.1530303792
 O          3.4785621387        2.9353700122        0.3777686456
 O          3.1241163190        1.4192298506       -1.5249695299
 C          5.1918299306        0.9581025185        0.0711842212
 C          5.9034770044        0.4876799318       -1.0148806520
 C          7.1871361104        0.0031683672       -0.8158017846
 C          7.7333229945       -0.0008981832        0.4585253272
 C          7.0063668327        0.4781343564        1.5383390564
 C          5.7231912598        0.9643917089        1.3461200152
 H          5.1263677743        1.3488921118        2.1562174665
 H          7.4346009536        0.4739298443        2.5277173400
 H          8.7315940039       -0.3796232578        0.6110834026
 H          7.7534793751       -0.3691734209       -1.6542649643
 H          5.4349582513        0.5063821367       -1.9861950292
 H          1.9690451332        1.2502226101        1.4054428308
 H          3.8667066115       -1.2351355994       -0.4341726466
 H          2.8435141408       -3.3211124487       -1.2739741233
 H          0.4577392413       -3.7673255618       -0.9190477745
 H         -1.5214235859       -2.3230920269        1.4571602725
 C         -1.9666676002       -3.3085679658       -0.3882837014
 C         -1.8988003140       -4.6979073818        0.1697099141
 C         -3.2060879570       -3.9667221849        0.1372666765
 H         -3.9604666123       -4.2834401221       -0.5672564609
 H         -3.6080547105       -3.5928174672        1.0677781316
 H         -1.7574787051       -5.5213114582       -0.5139400930
 H         -1.4166821485       -4.8293061417        1.1264515337
 H         -1.8848932357       -3.1798136210       -1.4619418973
