  62
        -98.94368215
 C          1.7650054701        0.5056039894        0.4793444404
 C          2.9549748299        0.4896230989        1.2447720505
 C          4.1988960400        0.6957971096        0.4947978309
 C          4.1503155702        0.9026804307       -0.8340185789
 C          5.3312717704        1.1445969115       -1.7347082786
 C          6.0289812006       -0.1386150280       -2.2065451395
 C          6.8502719305       -0.8632064088       -1.1392818599
 H          7.4548606606       -1.6125738583       -1.6540965504
 H          7.5369171603       -0.1582191291       -0.6696197592
 C          6.0110836104       -1.5630752697       -0.0610709106
 H          4.9824537404       -1.6708142496       -0.4133178709
 H          6.3987292905       -2.5707128898        0.1056526787
 C          5.9989948001       -0.8527779208        1.2926446400
 H          7.0052254400       -0.8564272810        1.7175811501
 H          5.3469624300       -1.4126176514        1.9682265294
 C          5.4953125199        0.5956177592        1.2406458310
 H          5.3167965797        0.9332228883        2.2645433713
 H          6.2478153399        1.2395433596        0.7861436517
 H          6.6988892607        0.1366589027       -3.0243893691
 H          5.2746471007       -0.8183770078       -2.6095244201
 H          6.0525145402        1.7877656012       -1.2298321379
 H          4.9496576104        1.6708655822       -2.6121783582
 O          2.9826486803        0.9338081211       -1.5295695491
 C          1.7654440403        0.7151044205       -0.8998631095
 O          0.7814441804        0.7388741210       -1.6621549096
 O          2.9764099298        0.3076629979        2.4920643004
 C          0.4383109400        0.2681080287        1.1766072700
 C         -0.2441327798       -0.9440359809        0.5929549189
 C          0.4905246704       -2.1160431807        0.4271569881
 C         -0.0906638194       -3.2436199203       -0.1174908929
 C         -1.4218585894       -3.2325162302       -0.4965267331
 C         -2.1679516895       -2.0738995404       -0.3239979623
 C         -1.5780595297       -0.9396736608        0.2189019887
 H         -2.1739776299       -0.0521711509        0.3466251093
 N         -3.5108835795       -2.0241358002       -0.7195896125
 S         -4.6320633897       -1.1490058611        0.1545637480
 O         -4.3682339499       -1.2079390021        1.5733972780
 O         -5.9115855696       -1.6758452909       -0.2712101626
 C         -4.4748154998        0.5253207094       -0.4298993506
 C         -4.2096368496        0.7537164705       -1.7653069704
 C         -4.1221184297        2.0614630709       -2.2149903093
 C         -4.3079985599        3.1125306402       -1.3299827185
 C         -4.5812251501        2.8664835191        0.0065834212
 C         -4.6664905200        1.5607491987        0.4635301102
 H         -4.8659475102        1.3228674779        1.4964951999
 H         -4.7256215203        3.6855672085        0.6932865018
 H         -4.2377004300        4.1291945305       -1.6835113977
 H         -3.9052030495        2.2563848017       -3.2529629792
 H         -4.0636407494       -0.0841379989       -2.4263079310
 H         -3.8914103893       -2.8891554800       -1.0734595432
 H         -1.8774958092       -4.1120077899       -0.9255166539
 H          0.4945632507       -4.1419646902       -0.2458838935
 H          1.5299733403       -2.1270720508        0.7263881182
 H          0.6931893598        0.0445516479        2.2237330898
 C         -0.4095839601        1.5219135586        1.1402472808
 C         -1.4134670803        1.7878211277        2.2206007209
 C         -0.1542271304        2.5969458878        2.1521581517
 H         -0.2194748305        3.6274080581        1.8374136725
 H          0.6155944895        2.4124141773        2.8872173217
 H         -2.3435007904        2.2637999078        1.9495522911
 H         -1.5094332704        1.0538900470        3.0067352903
 H         -0.6513554500        1.8318058694        0.1294595410
