  62
        -98.94152710
 C         -2.4321993975       -1.1837630482        0.1483189799
 C         -2.8194709797       -0.2777961893        1.1702491848
 C         -3.3953609984        0.9960173442        0.7309364343
 C         -3.5316216711        1.2446308898       -0.5835910732
 C         -4.1063550662        2.4928864860       -1.1954673564
 C         -3.0949640917        3.6405691694       -1.3215397190
 C         -2.7274344098        4.3311870616       -0.0075647935
 H         -2.2012399193        5.2516577522       -0.2681928742
 H         -3.6385825226        4.6138518561        0.5210237057
 C         -1.8291434897        3.4988270256        0.9184252541
 H         -1.3512738666        2.6981700014        0.3469889631
 H         -1.0235618699        4.1288843462        1.3031211557
 C         -2.5468590771        2.8964853679        2.1270360588
 H         -2.8889183579        3.6986883537        2.7849955636
 H         -1.8275668389        2.2875149579        2.6804129028
 C         -3.7482618496        2.0091970788        1.7773283616
 H         -4.0455216427        1.4658932361        2.6776956980
 H         -4.5853373568        2.6225669481        1.4446771903
 H         -2.1869390591        3.2574584728       -1.7946461603
 H         -3.5299552962        4.3866086536       -1.9909528552
 H         -4.4465453832        2.2211737240       -2.1971368542
 H         -4.9664786172        2.8255709737       -0.6135952369
 O         -3.1640708649        0.3476530206       -1.5346427547
 C         -2.5767667882       -0.8675315987       -1.2022564075
 O         -2.2543217955       -1.5480745287       -2.1964211166
 O         -2.6959792975       -0.5325352108        2.3977865265
 C         -1.7880127693       -2.4819757987        0.6072580542
 C         -0.2965278995       -2.2831785011        0.6943865510
 C          0.4030458075       -2.5085336622        1.8733374608
 C          1.7616346204       -2.2506712504        1.9478427544
 C          2.4457174889       -1.7511478596        0.8533969904
 C          1.7533401635       -1.5238684505       -0.3283675449
 C          0.3992694679       -1.7996599688       -0.4060691079
 H         -0.1307167797       -1.6130692607       -1.3292522242
 N          2.4360807289       -0.9518441023       -1.4355496231
 S          2.5294036379        0.7299225996       -1.2955200491
 O          1.3368758211        1.2747448620       -0.6830810367
 O          2.8491840964        1.2188056753       -2.6192000015
 C          3.9289407461        0.9481362797       -0.2195735959
 C          5.1875846113        0.6868498728       -0.7256717003
 C          6.2843674600        0.8145993140        0.1114599875
 C          6.1037823807        1.1970213176        1.4326534595
 C          4.8336536285        1.4581711144        1.9240755696
 C          3.7319245116        1.3326084822        1.0918561204
 H          2.7251347442        1.5197884231        1.4303604634
 H          4.6949425846        1.7551476004        2.9511655360
 H          6.9582572883        1.2928250977        2.0838445641
 H          7.2736609265        0.6138683688       -0.2669634196
 H          5.2786101470        0.3970637827       -1.7592256329
 H          1.9726114257       -1.1586892314       -2.3113688970
 H          3.5009193520       -1.5376959977        0.9048298152
 H          2.2908554344       -2.4294466371        2.8710481212
 H         -0.1308637280       -2.8667979151        2.7412725589
 H         -2.1632787612       -2.6332751952        1.6316281920
 C         -2.1977150517       -3.6943285561       -0.2158470650
 C         -1.2467294190       -4.4806824166       -1.0635122015
 C         -1.7632445608       -5.0643929820        0.2149489185
 H         -2.4759619158       -5.8733803988        0.1673225493
 H         -1.0768561342       -5.1253275786        1.0460163267
 H         -1.6173690851       -4.8651814672       -2.0015429800
 H         -0.2143803360       -4.1699134053       -1.1011753403
 H         -3.2094950613       -3.6015613521       -0.5967113574
