  62
        -98.93923349
 C         -2.5414026912       -1.1607445310        0.6112177130
 C         -3.4116370177       -0.9842940794       -0.4932256830
 C         -4.4749180562        0.0153521243       -0.3091975694
 C         -4.5672002327        0.7023656915        0.8426686790
 C         -5.6056904486        1.7380610072        1.1787574312
 C         -5.2798391542        3.1430293487        0.6537795693
 C         -5.4268040720        3.3229550878       -0.8576902558
 H         -6.4113850790        2.9732096099       -1.1697611036
 H         -5.3833060046        4.3954056366       -1.0577989526
 C         -4.3419535546        2.6218849612       -1.6872886248
 H         -3.9706968866        3.3063554773       -2.4534065760
 H         -3.4939422125        2.3740618641       -1.0441100759
 C         -4.8107910498        1.3538819142       -2.4008504045
 H         -3.9558322839        0.9205687669       -2.9255970307
 H         -5.5679202601        1.6112118400       -3.1448347844
 C         -5.3878099561        0.2808145886       -1.4685171133
 H         -6.3742129098        0.5799144928       -1.1150567138
 H         -5.4840485296       -0.6485536701       -2.0350881751
 H         -5.9586307029        3.8411365582        1.1492578067
 H         -4.2613825367        3.4006801184        0.9543615563
 H         -6.5763825657        1.4214740048        0.7960186910
 H         -5.6587035530        1.7818965891        2.2687846258
 O         -3.7042558322        0.5109944015        1.8771116414
 C         -2.6708164754       -0.4034618836        1.7785316788
 O         -1.9441219061       -0.4645666735        2.7926077356
 H          0.9723225691       -1.7252150909        1.8512117683
 C          0.9772124682       -1.3312487701        0.8436243957
 C         -0.1556185064       -1.4656896248        0.0559555619
 C         -0.1495283342       -0.9174055835       -1.2236865324
 C          0.9748561623       -0.2698769875       -1.7005825292
 C          2.1087592102       -0.1478719959       -0.9150738847
 C          2.1041561634       -0.6694935864        0.3709339536
 N          3.2473177445       -0.5478505474        1.1769330645
 S          4.0382552012        0.9312346045        1.2463402912
 O          4.7370549022        0.9213231825        2.5128512343
 O          3.1322565314        2.0329503341        1.0187491467
 C          5.2318727668        0.8328953826       -0.0721767657
 C          5.3065406374        1.8441905476       -1.0097685872
 C          6.2517097358        1.7534260038       -2.0199322853
 C          7.1014565963        0.6593196746       -2.0735920308
 C          7.0153158557       -0.3467837613       -1.1227239614
 C          6.0741142323       -0.2612513002       -0.1094188539
 H          5.9778466750       -1.0193629616        0.6496097995
 H          7.6776843353       -1.1961928479       -1.1680120324
 H          7.8350737082        0.5903799930       -2.8612074061
 H          6.3203050489        2.5351300868       -2.7593662108
 H          4.6209364380        2.6731785967       -0.9319979441
 H          3.1382037060       -0.9395902009        2.1013154516
 H          2.9839328948        0.3627793428       -1.2820513323
 H          0.9697539667        0.1476925847       -2.6960892491
 H         -1.0374099176       -1.0024648592       -1.8319417177
 C         -1.3822797780       -2.1451002153        0.6076680388
 H         -1.1901164893       -2.3607450101        1.6707185844
 C         -1.7143104043       -3.4677661886       -0.0697205481
 C         -1.0163648517       -3.9777660502       -1.2915126863
 C         -0.7497919048       -4.6124070268        0.0377690762
 H         -1.1365613649       -5.6010990641        0.2329494683
 H          0.2036575414       -4.4107622335        0.5033881181
 H         -1.6106942316       -4.5146109858       -2.0149537128
 H         -0.2386212870       -3.3729853137       -1.7297405826
 H         -2.7671602111       -3.7137854741        0.0159854395
 O         -3.3289937577       -1.6163931975       -1.5759511850
