  62
        -98.94449726
 C         -2.6477055074       -1.2820776915        0.1102734244
 C         -2.5766901255       -0.2922660636       -0.8999166721
 C         -3.5164955197        0.8312573467       -0.7646577774
 C         -4.3788112074        0.8556899511        0.2672378366
 C         -5.3487452990        1.9645612871        0.5522638512
 C         -4.7311000975        3.0163884041        1.4842312160
 C         -3.3432181456        3.4891701660        1.0506893089
 H         -3.0220757083        4.2523894961        1.7629120902
 H         -2.6373803553        2.6588906106        1.1334927891
 C         -3.2826277377        4.0623741613       -0.3720232214
 H         -4.2856629132        4.3282394503       -0.7079974472
 H         -2.6914987007        4.9803949011       -0.3541665689
 C         -2.6322061259        3.1372994358       -1.4026864819
 H         -1.6623899965        2.7955178762       -1.0291409255
 H         -2.4432355520        3.7188725927       -2.3093632380
 C         -3.4565148236        1.9091966614       -1.8100149221
 H         -4.4613853286        2.2214265791       -2.1015545474
 H         -2.9704352988        1.4578819464       -2.6800308109
 H         -5.4076514424        3.8712445610        1.5362551214
 H         -4.6476678171        2.5865128109        2.4849438562
 H         -5.6501756663        2.4268427424       -0.3855558935
 H         -6.2281219202        1.5358373041        1.0356404831
 O         -4.4307864135       -0.1212374839        1.2074590059
 C         -3.5597190387       -1.1951472170        1.1662824873
 O         -3.6976477881       -2.0016033242        2.1072149294
 H          0.2900034070       -1.5824096479       -1.5135428962
 C          0.5650665794       -1.5394397903       -0.4716660227
 C         -0.3280347257       -1.9777233829        0.4938075671
 C          0.0350117020       -1.8733119251        1.8335215273
 C          1.2618811451       -1.3469481600        2.1928482366
 C          2.1473253901       -0.9024677457        1.2260283272
 C          1.7865467406       -0.9862267363       -0.1115308206
 N          2.6695891516       -0.5168149930       -1.1006291302
 S          3.3073285014        1.0246277439       -0.9000248388
 O          2.4354593736        1.8688040759       -0.1158293712
 O          3.6215189067        1.4851002775       -2.2351580979
 C          4.8300465598        0.7331017328       -0.0220977846
 C          5.7228231789       -0.1773560225       -0.5530512811
 C          6.9166967567       -0.4094208687        0.1108435477
 C          7.1983852997        0.2717105898        1.2858278608
 C          6.2936588380        1.1854682887        1.8040143570
 C          5.0966581263        1.4210065013        1.1453403006
 H          4.3604096332        2.1175501963        1.5141500456
 H          6.5141976525        1.7146272179        2.7171941493
 H          8.1284157398        0.0895865838        1.8007764993
 H          7.6226091430       -1.1194538611       -0.2889766386
 H          5.4672049235       -0.6826743159       -1.4692848086
 H          2.3054951032       -0.6239172511       -2.0371810090
 H          3.0997564602       -0.4780596009        1.4991042984
 H          1.5309371382       -1.2766873875        3.2358895899
 H         -0.6670067559       -2.1944351751        2.5905490294
 C         -1.7059173296       -2.4777011607        0.1330561960
 H         -2.0583862971       -3.1188997880        0.9514961303
 C         -1.7489539450       -3.2720109443       -1.1557460150
 C         -1.1651191908       -4.6516646929       -1.1801483766
 C         -2.6503424244       -4.4648276005       -1.2478753161
 H         -3.1539208657       -4.6576833880       -2.1833276084
 H         -3.2382665399       -4.7154186778       -0.3768887773
 H         -0.6466417017       -4.9770388652       -2.0689600647
 H         -0.7437661213       -5.0292904719       -0.2608553441
 H         -1.6487801805       -2.6628980929       -2.0447472285
 O         -1.7821502835       -0.3315237132       -1.8771671633
