  62
        -98.93966789
 C          2.1448698167        0.3363088201        0.3350500828
 C          3.2006781375        0.6476596764       -0.5570519875
 C          4.1693631469       -0.4300019707       -0.8020235579
 C          3.9992349722       -1.6348540016       -0.2307179568
 C          4.8898392542       -2.8349626247       -0.4055382149
 C          6.1158684745       -2.8408172756        0.5182838500
 C          7.2088964181       -1.8339563172        0.1572493811
 H          7.4732208732       -1.9484100241       -0.8943965471
 H          8.0908266484       -2.0951991605        0.7454843642
 C          6.8418438217       -0.3708185964        0.4418406275
 H          7.6759459903        0.1224874237        0.9459436192
 H          5.9897004077       -0.3351581545        1.1246030480
 C          6.5127109405        0.4533144402       -0.8028327529
 H          7.4010883329        0.5366045483       -1.4326672465
 H          6.2302558519        1.4592622648       -0.4826403432
 C          5.3654620687       -0.1136589561       -1.6490123201
 H          5.6966175891       -1.0017593629       -2.1863358654
 H          5.0666160191        0.6457446345       -2.3753767578
 H          6.5477923264       -3.8435041653        0.4788455848
 H          5.7807511807       -2.6637785897        1.5429914470
 H          5.2144196665       -2.9029323366       -1.4442491833
 H          4.2793384157       -3.7103699450       -0.1736056259
 O          2.9489444152       -1.9096624196        0.5892407422
 C          2.0224558342       -0.9327429217        0.9099469768
 O          1.1457444066       -1.3114188501        1.7149825579
 O          3.3530136796        1.7577016511       -1.1307414426
 C          1.0753772459        1.3386034279        0.7412482909
 C          0.0044787726        1.4589870904       -0.3171693617
 C          0.2733212775        2.0021649597       -1.5692806218
 C         -0.7293397068        2.1019036774       -2.5159691997
 C         -2.0122792695        1.6671699827       -2.2352241204
 C         -2.2931153923        1.1279342772       -0.9848434054
 C         -1.2844250599        1.0271076902       -0.0369450392
 H         -1.5075763992        0.5872223634        0.9238228077
 N         -3.6031476991        0.7286170725       -0.6660750412
 S         -3.8575175725       -0.5845608448        0.3620486546
 O         -3.5980556207       -0.1718105577        1.7182103643
 O         -3.1351790260       -1.7428725008       -0.1162532939
 C         -5.6124175864       -0.8065230757        0.1346526809
 C         -6.4689251104        0.0939665492        0.7401832829
 C         -7.8339525098       -0.0470387201        0.5488590528
 C         -8.3178055103       -1.0804847301       -0.2399842706
 C         -7.4465674037       -1.9776093733       -0.8389488508
 C         -6.0794609464       -1.8410268027       -0.6531461059
 H         -5.3644815820       -2.5174486882       -1.0934896351
 H         -7.8254722519       -2.7817036670       -1.4489643784
 H         -9.3808182860       -1.1887931626       -0.3867090451
 H         -8.5144270951        0.6472888033        1.0147523348
 H         -6.0470594841        0.8748688814        1.3509581646
 H         -4.1942196215        0.6613013198       -1.4841449458
 H         -2.7930836641        1.7460103105       -2.9765676016
 H         -0.5081186533        2.5195539573       -3.4866315404
 H          1.2771062340        2.3251600815       -1.7970608124
 H          0.6022497023        0.9154729994        1.6385679220
 C          1.6410630475        2.7004014520        1.0972905139
 C          0.8255233387        3.6175120101        1.9556784879
 C          2.0600197746        2.9721120703        2.5089688593
 H          2.9329242724        3.5844365077        2.6785533637
 H          1.9397827069        2.1741800663        3.2280723452
 H          0.8485487382        4.6757526284        1.7460265810
 H         -0.1324420218        3.2565098476        2.3001197157
 H          2.2358441967        3.1404823735        0.3083682604
