  62
        -98.93993247
 C         -1.4991963593       -1.4657862760       -0.0437911635
 C         -1.4836426876       -0.0969606340        0.3115113534
 C         -2.7822098283        0.4913767004        0.6889584906
 C         -3.8776671705       -0.2875719821        0.6894326092
 C         -5.2942630910        0.1296232133        0.9734066455
 C         -6.0240212475        0.4900054957       -0.3320011216
 C         -5.8639046806        1.9418380153       -0.7819884040
 H         -6.3171669253        2.0255600209       -1.7725638857
 H         -6.4290831215        2.5896953296       -0.1084969025
 C         -4.4220801305        2.4515149929       -0.8562231709
 H         -3.7856143938        1.6893620672       -1.3093312212
 H         -4.4096687964        3.3195217656       -1.5183290332
 C         -3.8554811516        2.8607440002        0.5113987874
 H         -4.6725847804        2.9210754160        1.2301521139
 H         -3.4320649381        3.8646333394        0.4409410418
 C         -2.7493207745        1.9482716531        1.0618863570
 H         -1.7742747634        2.2969725900        0.7073202055
 H         -2.7315383882        2.0277239068        2.1537710953
 H         -5.6604181907       -0.1807486349       -1.1148393777
 H         -7.0902626011        0.2923302920       -0.2035945813
 H         -5.7905276451       -0.7333455225        1.4222606099
 H         -5.3198581961        0.9547574531        1.6789401506
 O         -3.8414012866       -1.6096298085        0.3611879484
 C         -2.6633885708       -2.2304646697       -0.0131956636
 O         -2.7787557813       -3.4437628338       -0.2823183105
 O         -0.4404501719        0.6043975705        0.3080524159
 C         -0.2077565348       -2.1367405032       -0.4756071963
 C          0.8545799992       -1.9071884515        0.5705816206
 C          0.5801203179       -2.2460890742        1.8935524747
 C          1.5106812687       -2.0187059786        2.8881095313
 C          2.7297007707       -1.4349049850        2.5888767163
 C          3.0178506685       -1.1056545733        1.2705422363
 C          2.0903590570       -1.3592188796        0.2689492407
 H          2.3509047589       -1.1144974207       -0.7460344379
 N          4.2471620108       -0.5261073505        0.9318101552
 S          4.3829168168        0.5199259252       -0.3613460033
 O          4.3829450155       -0.2212937549       -1.5986241025
 O          5.5949228756        1.2625102295       -0.0815620541
 C          2.9844538805        1.6249256247       -0.3041539959
 C          2.2107957118        1.7960031497       -1.4325579453
 C          1.1548644082        2.6906302562       -1.3933911070
 C          0.8912952019        3.3940604688       -0.2302224273
 C          1.6757682500        3.2095954134        0.8965588515
 C          2.7349647410        2.3189438199        0.8618856295
 H          3.3649081791        2.1592374336        1.7222130706
 H          1.4593219911        3.7514480072        1.8034696933
 H          0.0641400290        4.0863528500       -0.2007318274
 H          0.5346944766        2.8275079250       -2.2654238211
 H          2.4461267332        1.2230896244       -2.3161544703
 H          4.8243650015       -0.2471257735        1.7106788323
 H          3.4514739114       -1.2400286184        3.3672015721
 H          1.2820920332       -2.2855412371        3.9090864485
 H         -0.3809933721       -2.6825534795        2.1309376690
 H         -0.4200613151       -3.2142939807       -0.5302597084
 C          0.1902051986       -1.6437143979       -1.8513696114
 C          1.0444985859       -2.4941797384       -2.7410990462
 C         -0.4044409459       -2.2891299840       -3.0649897198
 H         -0.6625061912       -1.6653975232       -3.9077196034
 H         -1.0868393217       -3.1115360099       -2.9057119613
 H          1.7891202826       -2.0125312627       -3.3575215620
 H          1.3483912576       -3.4599541943       -2.3661326940
 H          0.3373315618       -0.5694611749       -1.8783640111
