  62
        -98.93655541
 C         -2.1501418197       -0.9699118706       -0.0869986208
 C         -2.9029191298       -0.2896132216        0.8978957999
 C         -3.7345791300        0.8231399986        0.4201076709
 C         -3.7115336602        1.1576047898       -0.8829028388
 C         -4.4481136305        2.2999055802       -1.5316097977
 C         -5.9862933805        2.2082440699       -1.5307484476
 C         -6.6622953105        2.9285264587       -0.3575238870
 H         -5.9944487607        3.7103401686        0.0065075736
 H         -7.5603693207        3.4297853589       -0.7241100364
 C         -7.0940466802        2.0394178676        0.8126546623
 H         -7.3191709903        2.6891980469        1.6611746329
 H         -8.0160796902        1.5189484677        0.5439599820
 C         -6.0841158800        0.9802618875        1.2547279413
 H         -6.0767072899        0.1570266781        0.5363896806
 H         -6.4246803498        0.5589055166        2.2026997510
 C         -4.6396860301        1.4940726376        1.4120907816
 H         -4.6011768703        2.5765312177        1.2975620525
 H         -4.2593394799        1.2396176668        2.4036950813
 H         -6.3300049007        2.6711591306       -2.4570644772
 H         -6.2883624103        1.1617888499       -1.5614124285
 H         -4.1410417707        3.2321624298       -1.0518286069
 H         -4.0932357206        2.3236866212       -2.5639385577
 O         -2.9466486502        0.4957289507       -1.7939336094
 C         -2.1594977999       -0.5862787494       -1.4282820604
 O         -1.5257219599       -1.1011994985       -2.3675046309
 O         -2.8708129496       -0.5884211127        2.1233403696
 C         -1.2781293795       -2.1395810308        0.3283573781
 C          0.1700340904       -1.8663147602        0.0015291682
 C          1.0175285706       -2.8159777396       -0.5534484127
 C          2.3424083505       -2.5084224891       -0.8119039125
 C          2.8511359603       -1.2560163592       -0.5234267715
 C          2.0164010601       -0.3019913899        0.0442638994
 C          0.6923017302       -0.6153269304        0.3077398793
 H          0.0447560901        0.1299433891        0.7548633700
 N          2.5232769399        0.9783691600        0.3346510305
 S          3.8975739800        1.0735391194        1.2978739504
 O          3.9885274103       -0.0524964314        2.1985564094
 O          3.8409967298        2.3835270889        1.9094164115
 C          5.2431677799        1.0341802907        0.1331268702
 C          5.2867294796        2.0093458415       -0.8439570289
 C          6.3308739495        1.9970789825       -1.7548340190
 C          7.3093490197        1.0173975126       -1.6718509300
 C          7.2530685300        0.0474981918       -0.6827089308
 C          6.2105772001        0.0533663108        0.2310676793
 H          6.1221410603       -0.6829616599        1.0138663187
 H          8.0148552502       -0.7128161081       -0.6198016415
 H          8.1207574296        1.0103649634       -2.3823963201
 H          6.3779741493        2.7497366932       -2.5253425884
 H          4.5087992095        2.7541765414       -0.8707080082
 H          1.8204940498        1.6229410595        0.6670294911
 H          3.8794428402       -1.0103027589       -0.7321502914
 H          2.9870107706       -3.2550750686       -1.2498031532
 H          0.6401409108       -3.7976149294       -0.7878285335
 H         -1.3706618893       -2.1981244318        1.4238961181
 C         -1.8023920093       -3.4274098304       -0.2722919329
 C         -1.6178859889       -4.7292241210        0.4471191359
 C         -2.9753239791       -4.0992773212        0.3743500266
 H         -3.7237167790       -4.5526904108       -0.2581071537
 H         -3.3774998591       -3.6421382620        1.2669184570
 H         -1.4367381288       -5.6195761704       -0.1359035148
 H         -1.1003805989       -4.7081662617        1.3943944559
 H         -1.7599036794       -3.4268894694       -1.3556773629
