  62
        -98.94645901
 C          1.3456250756        1.1161459515       -0.1039056300
 C          2.3977409682        1.0003495430        0.8406519872
 C          3.1601025854       -0.2517776966        0.8067501245
 C          2.8150939577       -1.2172273669       -0.0642433542
 C          3.4801462390       -2.5597444589       -0.2061518037
 C          4.7378329690       -2.5443542362       -1.0861862503
 C          5.9646092317       -1.8793778774       -0.4608644252
 H          6.1460504959       -2.3068532434        0.5257671936
 H          6.8214653722       -2.1342183266       -1.0878369220
 C          5.8705308007       -0.3509947015       -0.3527236869
 H          5.0781718554        0.0131603696       -1.0107121794
 H          6.8045241954        0.0968789745       -0.6996683654
 C          5.6165229984        0.1697233084        1.0619374442
 H          6.4694080785       -0.0719733211        1.7001840519
 H          5.5291893185        1.2582715994        1.0158200594
 C          4.3435057490       -0.3813733603        1.7174851212
 H          4.4904359326       -1.4216701981        2.0067243841
 H          4.1384944969        0.2066053883        2.6153893848
 H          4.4979216680       -2.0498290990       -2.0302339668
 H          4.9907221887       -3.5832326773       -1.3105154474
 H          3.7307870253       -2.9519824510        0.7798964439
 H          2.7488977352       -3.2231794075       -0.6723462266
 O          1.7786102680       -1.0822106079       -0.9305394321
 C          1.0283258183        0.0829593783       -0.9866240940
 O          0.1347072161        0.0599838675       -1.8541888716
 H         -1.7166453965        1.5469237481       -1.3989648091
 C         -1.8626816670        1.6297274944       -0.3339177952
 C         -0.8280790067        2.0825023559        0.4711398244
 C         -1.0351734975        2.1487878263        1.8457050083
 C         -2.2465923083        1.7741446590        2.3976915098
 C         -3.2700952808        1.3040553510        1.5928954386
 C         -3.0655321312        1.2200997430        0.2225617950
 N         -4.0804968510        0.6829073116       -0.6008582305
 S         -4.4919478491       -0.9075657150       -0.2619531063
 O         -5.1472362483       -1.4013058252       -1.4520321424
 O         -5.2752335801       -0.9360128329        0.9481987029
 C         -2.9436159537       -1.7538491334       -0.0012899314
 C         -2.4431991196       -1.8696015897        1.2799819806
 C         -1.2110890270       -2.4750267619        1.4633976560
 C         -0.5080566508       -2.9561022276        0.3700540264
 C         -1.0254672731       -2.8351101047       -0.9096540431
 C         -2.2518089789       -2.2207771544       -1.1001416231
 H         -2.6830343435       -2.1051516952       -2.0815682091
 H         -0.4705104279       -3.1986060309       -1.7593605791
 H          0.4521845101       -3.4254211642        0.5173344772
 H         -0.8005844388       -2.5665243624        2.4564275290
 H         -3.0243675431       -1.4931724930        2.1055245120
 H         -3.8561310785        0.7580980467       -1.5838451095
 H         -4.2130983956        0.9819631235        2.0043713554
 H         -2.3940842813        1.8399626060        3.4649921819
 H         -0.2266726109        2.4841120604        2.4797275561
 C          0.5316615613        2.4008582887       -0.0974759132
 H          1.0484629261        3.0676998253        0.6052416241
 C          0.4830777216        3.0697788199       -1.4551625129
 C          0.0177571551        4.4911229102       -1.5508912206
 C          1.4623116821        4.1588615683       -1.7705258600
 H          1.8598648755        4.2194566678       -2.7726660624
 H          2.1718404142        4.4321679819       -1.0032768837
 H         -0.5787716058        4.7833396994       -2.4015309169
 H         -0.2542711094        4.9883349751       -0.6321128245
 H          0.2215377075        2.3969218993       -2.2620439880
 O          2.6855313454        1.9024042487        1.6710954585
