  62
        -98.93543538
 C          1.7461686618       -0.8645710969        0.2879832591
 C          2.9735895501       -1.4372175907       -0.1369743276
 C          4.1972547202       -0.8000251233        0.3578511118
 C          4.1081117550        0.2628157074        1.1771410274
 C          5.2630473247        1.0135231931        1.7829217251
 C          5.8675640166        2.0804134126        0.8597444335
 C          6.6879641710        1.5389740526       -0.3118536018
 H          7.2288185437        2.3845895484       -0.7414185501
 H          7.4309248714        0.8337635798        0.0619699989
 C          5.8536387195        0.8746585353       -1.4160194248
 H          4.8073527115        1.1709629242       -1.3100705663
 H          6.1898530328        1.2328302045       -2.3916513486
 C          5.9354010040       -0.6516308578       -1.4404863954
 H          6.9557393564       -0.9603861598       -1.6782145512
 H          5.2787161046       -1.0171264266       -2.2338927483
 C          5.5136682160       -1.3265887946       -0.1289371905
 H          5.3949798215       -2.3964984529       -0.3163559757
 H          6.2827091959       -1.1872993211        0.6304920689
 H          5.0600921222        2.7106602738        0.4795840744
 H          6.5188809227        2.7088519080        1.4716784777
 H          4.8764288048        1.5097375281        2.6757717690
 H          6.0393968980        0.3098418389        2.0849303001
 O          2.9157315905        0.7764735144        1.5748596658
 C          1.7060426768        0.2421990589        1.1376023937
 O          0.7122265033        0.8410097045        1.5826378683
 H         -1.4771341309        0.4181173328        0.4719244571
 C         -1.2592225305        0.3565345727       -0.5781994244
 C         -0.3170215815       -0.5363342230       -1.0700710714
 C         -0.0321520440       -0.5010794671       -2.4360718542
 C         -0.6600058431        0.3950505211       -3.2785791681
 C         -1.6057857361        1.2743824147       -2.7829760756
 C         -1.8973791925        1.2558407835       -1.4244555783
 N         -2.8381926129        2.1492688298       -0.8993155689
 S         -3.7675102504        1.8186457933        0.4390824279
 O         -4.8797616599        2.7405013999        0.3179111068
 O         -3.0031504152        1.9244546228        1.6552039796
 C         -4.3776526249        0.1517255032        0.2480544225
 C         -4.7479700007       -0.3061034642       -1.0012210777
 C         -5.2705630793       -1.5842964816       -1.1185568546
 C         -5.4257502463       -2.3756261443        0.0091893635
 C         -5.0563193553       -1.8995553492        1.2571745464
 C         -4.5253108281       -0.6252224754        1.3791895137
 H         -4.2109928820       -0.2212741150        2.3280223952
 H         -5.1739017780       -2.5146091136        2.1344888583
 H         -5.8350336480       -3.3688486805       -0.0857036624
 H         -5.5553286079       -1.9574104187       -2.0891129952
 H         -4.6242313906        0.3276750421       -1.8639195370
 H         -3.3223359997        2.7254138399       -1.5705290925
 H         -2.1013932193        1.9783534100       -3.4339996800
 H         -0.4170313515        0.4059903156       -4.3301617056
 H          0.7084559545       -1.1824505773       -2.8306729319
 C          0.4711088000       -1.5145192805       -0.2347358937
 H          0.8502324387       -2.2745036629       -0.9370783585
 C         -0.2469483341       -2.3179984286        0.8409092091
 C         -1.0974194622       -1.7853425006        1.9533350334
 C         -1.7269290285       -2.5500455563        0.8278713218
 H         -2.0968500152       -3.5440388656        1.0280638369
 H         -2.3084559784       -1.9994465119        0.1049587172
 H         -1.0077068713       -2.2770052692        2.9123351249
 H         -1.2528492258       -0.7233119066        2.0441234691
 H          0.3661672281       -3.1735021045        1.1157029041
 O          3.0425834892       -2.4423568223       -0.8943657737
