  62
        -98.93423036
 C         -2.5864416548       -1.3341334532       -0.0920114072
 C         -2.4377173424       -0.1635091547       -0.8701170804
 C         -3.6573863858        0.6386812716       -1.0805582722
 C         -4.8175740316        0.2186300129       -0.5466776049
 C         -6.1544507705        0.9052941294       -0.5998162035
 C         -6.3634101028        1.7855899017        0.6439975970
 C         -5.8151186060        3.2071626532        0.5265164364
 H         -6.4385259043        3.7760550785       -0.1664594477
 H         -5.9081889861        3.6740052913        1.5097833898
 C         -4.3574910412        3.3113716623        0.0698113383
 H         -3.7538795757        2.5608303074        0.5841465370
 H         -3.9799648081        4.2896360328        0.3742993293
 C         -4.1892764872        3.1654242826       -1.4499688785
 H         -3.5978574515        4.0014351905       -1.8292558501
 H         -5.1673641790        3.2376639776       -1.9252895991
 C         -3.4838851141        1.8814330022       -1.9105096986
 H         -3.7847086851        1.6589616959       -2.9398689067
 H         -2.4021570539        2.0493677613       -1.9313528363
 H         -7.4334287270        1.8522333647        0.8507693382
 H         -5.8973216304        1.2805086957        1.4939970691
 H         -6.2555071711        1.4837458379       -1.5130983204
 H         -6.9089108094        0.1158665666       -0.5970711659
 O         -4.9155213573       -0.9204378409        0.1934624383
 C         -3.8139367444       -1.7143371665        0.4492861640
 O         -4.0488717429       -2.7138778093        1.1580703987
 O         -1.3393555943        0.2007762405       -1.3682096159
 C         -1.3841117636       -2.2167003673        0.1929590394
 C         -0.3263515412       -1.4095994136        0.9063846240
 C         -0.6749492332       -0.7541367885        2.0849780703
 C          0.2495059324        0.0119912599        2.7670596874
 C          1.5445758152        0.1390579509        2.2941847420
 C          1.9032534497       -0.5100981219        1.1218937370
 C          0.9700991896       -1.2825437036        0.4377443136
 H          1.2623111984       -1.7756924437       -0.4759678408
 N          3.2223546175       -0.4216946460        0.6405355464
 S          4.0434226006        1.0474794031        0.7678326086
 O          4.4694602304        1.2148572362        2.1352989344
 O          3.2522888446        2.1251045981        0.2171180403
 C          5.4578631719        0.7143320893       -0.2634135121
 C          5.4900465593        1.2026359867       -1.5555467669
 C          6.5867077954        0.9149422311       -2.3532497949
 C          7.6240235707        0.1450782568       -1.8489934620
 C          7.5767894243       -0.3384768410       -0.5496874149
 C          6.4847327892       -0.0527850467        0.2538693354
 H          6.4087142646       -0.3985326367        1.2714017583
 H          8.3861904985       -0.9353254382       -0.1613764230
 H          8.4757610426       -0.0773077505       -2.4722315022
 H          6.6272430146        1.2916571301       -3.3626707625
 H          4.6633835449        1.8016086037       -1.9032473685
 H          3.3054058595       -0.7928565480       -0.2964148630
 H          2.2719524749        0.7418453502        2.8130821537
 H         -0.0377311038        0.5192717546        3.6763107760
 H         -1.6879677714       -0.8487146533        2.4537259081
 H         -1.7377423406       -2.9960925943        0.8832210911
 C         -0.9045274407       -2.8771779830       -1.0822248035
 C         -0.1519306070       -4.1715667121       -1.0209993265
 C         -1.5615847805       -4.1472398971       -1.5287464455
 H         -1.7340394090       -4.2945597096       -2.5843445175
 H         -2.3426267706       -4.5486774549       -0.8994808568
 H          0.6434276989       -4.3415812190       -1.7309249840
 H          0.0277926326       -4.5979748212       -0.0457813507
 H         -0.6349463139       -2.1595206580       -1.8486709943
