  62
        -98.93419305
 C          1.9893240047        0.2586808590        0.8886587174
 C          3.2136894381        0.9867228348        0.8778161766
 C          4.4347699140        0.2393310204        0.5570272726
 C          4.3586128032       -1.0926749311        0.3927772038
 C          5.5038365491       -1.9802830210        0.0033409777
 C          5.6064899030       -2.1208827748       -1.5219533289
 C          5.5612492399       -0.7889656748       -2.2711052068
 H          5.6727331453       -1.0108121860       -3.3347006288
 H          4.5749498022       -0.3389152864       -2.1379486766
 C          6.6383072990        0.2177559748       -1.8431947370
 H          7.0822766001        0.6577140437       -2.7387076559
 H          7.4357609638       -0.2980307538       -1.3071139406
 C          6.1192516094        1.3750481152       -0.9877898188
 H          5.2596927570        1.8367880151       -1.4800295816
 H          6.9061403849        2.1314227990       -0.9256212898
 C          5.7177725612        1.0138456838        0.4477121311
 H          6.5339790959        0.4744899392        0.9328188369
 H          5.5510598433        1.9472975573        0.9931834644
 H          6.5361876367       -2.6418979584       -1.7580293194
 H          4.7744711130       -2.7379066701       -1.8694511217
 H          6.4279355040       -1.5664363808        0.4029616900
 H          5.3390044341       -2.9664397104        0.4408160791
 O          3.2003770662       -1.7762782624        0.5439229749
 C          1.9943190487       -1.1362041677        0.8252361571
 O          1.0609259881       -1.9413163369        1.0034766619
 O          3.2832498761        2.2181435171        1.1367812881
 C          0.7406930532        1.0930428811        1.1690000896
 C         -0.5367070800        0.3562172742        1.4540168633
 C         -1.2174901134        0.6097029586        2.6398863203
 C         -2.4346532374        0.0085241494        2.9094260179
 C         -3.0025336073       -0.8596339107        1.9966124303
 C         -2.3329050053       -1.1221184013        0.8086732219
 C         -1.1181824558       -0.5096173778        0.5371294920
 H         -0.5982797984       -0.7598365065       -0.3754538039
 N         -2.9153203026       -1.9990915585       -0.1285173047
 S         -4.4482627235       -1.6014357629       -0.6703569932
 O         -5.4155835064       -1.9304123076        0.3462519874
 O         -4.6010479141       -2.2793805995       -1.9381626560
 C         -4.3887745502        0.1652229056       -0.9054779352
 C         -3.7762418734        0.6508660929       -2.0437292537
 C         -3.6444452896        2.0206476215       -2.2030388070
 C         -4.1148386456        2.8769238016       -1.2195631566
 C         -4.7297611233        2.3741333991       -0.0836505794
 C         -4.8693417928        1.0050492042        0.0788403370
 H         -5.3455618251        0.5747371437        0.9440239592
 H         -5.0962371510        3.0427885918        0.6785025462
 H         -4.0003793992        3.9422832301       -1.3403493692
 H         -3.1681319771        2.4148254187       -3.0860048932
 H         -3.4264564523       -0.0484892319       -2.7867778434
 H         -2.3060366000       -2.2207220664       -0.9019453717
 H         -3.9465883529       -1.3455225866        2.1841110614
 H         -2.9418811421        0.2147621686        3.8394999073
 H         -0.7814547769        1.2846455610        3.3625900128
 H          0.9944526503        1.6777168306        2.0702418006
 C          0.5469925735        2.1523002255        0.0763586482
 C         -0.3208382891        2.0240840036       -1.1355178854
 C         -0.7191758301        2.9481285618       -0.0252099896
 H         -0.6464668055        4.0133019997       -0.1814602468
 H         -1.5515400321        2.6450168699        0.5924558644
 H          0.0487980973        2.4522974299       -2.0558206129
 H         -0.9123532742        1.1351669111       -1.2774414878
 H          1.4655105735        2.7103050407       -0.0629797969
