  62
        -98.93954646
 C          1.4961688892        1.1291703817        0.1516503883
 C          2.5391001842        0.6252812116        0.9656882193
 C          3.0621558557       -0.7069424095        0.6238876681
 C          2.4991166306       -1.3946240594       -0.3839429280
 C          2.8266783845       -2.7835285831       -0.8727830646
 C          4.3082832258       -3.1690066626       -0.9791048296
 C          5.2510062866       -2.0191874175       -1.3638384496
 H          5.8710388323       -2.3352882971       -2.2046601947
 H          4.6709308126       -1.1553090718       -1.6927354614
 C          6.1831470763       -1.6038966189       -0.2231930143
 H          6.5633836053       -2.5047486184        0.2631932651
 H          7.0399685345       -1.0731099072       -0.6450086827
 C          5.5612878608       -0.6911066582        0.8330889040
 H          6.2863985430       -0.5684150052        1.6411214402
 H          5.3848590414        0.3011802948        0.4088149007
 C          4.2338975510       -1.1815121481        1.4346139082
 H          4.1211003902       -0.7231759669        2.4212168332
 H          4.2285600315       -2.2623708526        1.5546058933
 H          4.6406222657       -3.6012928390       -0.0363634601
 H          4.3739848918       -3.9606506488       -1.7274472617
 H          2.3575952960       -2.8557592169       -1.8572159845
 H          2.3122228338       -3.4964818337       -0.2210915334
 O          1.4664775872       -0.8924843453       -1.1144742523
 C          0.9306009527        0.3597007422       -0.8637626726
 O         -0.0196427707        0.6588225646       -1.6122847179
 O          3.0065502746        1.2592931480        1.9505935185
 C          0.9176284879        2.4894574153        0.4978076297
 C         -0.5883681802        2.4089099863        0.5279467854
 C         -1.4294734681        3.2874333354       -0.1422111465
 C         -2.8039348070        3.1311977648       -0.0782925490
 C         -3.3661690326        2.0856546109        0.6299170530
 C         -2.5318296010        1.2006896827        1.3030904953
 C         -1.1609022586        1.3847383198        1.2736186031
 H         -0.5277624712        0.6856144118        1.8016702548
 N         -3.0447013431        0.0888888777        2.0087395751
 S         -2.7007471561       -1.4134307187        1.3439242442
 O         -3.3462168165       -2.3712318193        2.2172909591
 O         -1.2780523211       -1.5609168313        1.1768064851
 C         -3.5457547582       -1.3910439911       -0.2274272298
 C         -2.9705804185       -0.7395591132       -1.2999557634
 C         -3.6843587295       -0.6590226784       -2.4868883259
 C         -4.9475812988       -1.2217325354       -2.5801919996
 C         -5.5098812381       -1.8723742222       -1.4918157626
 C         -4.8063606108       -1.9535573393       -0.3015652876
 H         -5.2000776462       -2.4504380233        0.5705758188
 H         -6.4915389914       -2.3118308473       -1.5660986106
 H         -5.4955146834       -1.1529836108       -3.5067449642
 H         -3.2403543242       -0.1506887632       -3.3277522580
 H         -1.9837984538       -0.3109763732       -1.2104969271
 H         -4.0397481880        0.1460133661        2.1820952433
 H         -4.4366157438        1.9467782947        0.6571440376
 H         -3.4440857891        3.8215924206       -0.6058613567
 H         -1.0108678904        4.0848888248       -0.7336827349
 H          1.2654434546        2.6772254559        1.5283491925
 C          1.4497282765        3.6322809895       -0.3546293142
 C          2.7649226986        3.5207676686       -1.0645787462
 C          1.4904326028        3.5544520592       -1.8504911648
 H          1.2636807770        4.4453459881       -2.4175853949
 H          1.1440192932        2.6416883532       -2.3088764373
 H          3.4102090064        4.3862094653       -1.0864923538
 H          3.2958372719        2.5824870530       -0.9909474471
 H          1.2240285347        4.6021314348        0.0777740540
