  62
        -98.94063135
 C         -2.6795058797       -1.2411329096        0.2260730507
 C         -2.2763942504       -0.2830879594       -0.7410103494
 C         -3.1013068305        0.9314961505       -0.8204393288
 C         -4.1952844401        1.0591966503       -0.0505443281
 C         -5.1292690502        2.2377454003       -0.0211321475
 C         -4.6495836998        3.3806914902        0.8845703424
 C         -3.4631192302        4.1843780604        0.3496879019
 H         -3.6768440208        4.5142284105       -0.6674473580
 H         -3.3767035199        5.0781870203        0.9706289919
 C         -2.1219971201        3.4364705905        0.3771966010
 H         -1.3454993799        4.0904208805        0.7803442507
 H         -2.1933481096        2.5777319504        1.0491229410
 C         -1.6362799008        2.9535922907       -0.9898395693
 H         -0.6973367207        2.4086745108       -0.8503229799
 H         -1.4276868212        3.8145679508       -1.6295841293
 C         -2.6248887411        2.0330323607       -1.7179671989
 H         -3.4686759114        2.6105551307       -2.0955981383
 H         -2.1051668015        1.5758946009       -2.5638513392
 H         -5.4909301998        4.0641588201        1.0196031830
 H         -4.3960239892        2.9672137201        1.8634049422
 H         -5.2819120208        2.6123286504       -1.0335032773
 H         -6.0832604100        1.8706873001        0.3632139630
 O         -4.5912123095        0.0867725202        0.8128190919
 C         -3.8225284593       -1.0480358798        1.0100021214
 O         -4.2626459988       -1.8089353699        1.8947123715
 H          0.3260211996       -2.2893399491       -1.0773744511
 C          0.5293182001       -1.9048372992       -0.0901149911
 C         -0.4516877793       -1.9705599194        0.8864480294
 C         -0.1773309087       -1.4531918696        2.1485349493
 C          1.0488958914       -0.8768778595        2.4231001887
 C          2.0120627709       -0.7767903793        1.4343076382
 C          1.7400830102       -1.2768850891        0.1684850683
 N          2.6978806997       -1.1246672789       -0.8524124622
 S          3.2554812094        0.4422499212       -1.1169281123
 O          2.3090461695        1.4407146210       -0.6793445217
 O          3.6430874686        0.4809906314       -2.5109751825
 C          4.7288240199        0.5274109712       -0.1166229531
 C          4.8620600803        1.5244374911        0.8296828569
 C          6.0198874407        1.5775931811        1.5903468063
 C          7.0197404607        0.6380626512        1.3914862256
 C          6.8722734403       -0.3554757187        0.4349237456
 C          5.7176443199       -0.4132595687       -0.3289782638
 H          5.5651718695       -1.1650180286       -1.0851055138
 H          7.6522491903       -1.0840078686        0.2827532451
 H          7.9192713610        0.6811299112        1.9850350851
 H          6.1357363311        2.3500222610        2.3336754764
 H          4.0557484103        2.2303359210        0.9520039275
 H          2.3963618992       -1.5262634988       -1.7296885121
 H          2.9582344709       -0.2980340792        1.6281848577
 H          1.2508933019       -0.4857618396        3.4087505887
 H         -0.9471744282       -1.4918667198        2.9073670897
 C         -1.8411803194       -2.4640958895        0.5726493301
 H         -2.2849327389       -2.8564198397        1.5008492703
 C         -1.8699800499       -3.6025251894       -0.4342822501
 C         -3.1788461202       -4.0562119394       -1.0084844094
 C         -2.1510869707       -3.4217679892       -1.8938697699
 H         -1.6197758510       -4.0525340091       -2.5922716603
 H         -2.3283229510       -2.4237519092       -2.2605546896
 H         -4.0546526101       -3.4783727195       -0.7499776388
 H         -3.3643633901       -5.1151149994       -1.1059157894
 H         -1.1608940897       -4.3823269694       -0.1721644106
 O         -1.2918010508       -0.4113799592       -1.5133400099
