  62
        -98.94306006
 C          2.6882983372        1.2058853900        0.1414590677
 C          2.6940705565        0.2160992901       -0.8706451607
 C          3.8774285335       -0.6525976390       -0.9007538873
 C          4.8760509762       -0.4559772118       -0.0208627683
 C          6.1543885338       -1.2457157814        0.0584859743
 C          6.0337633834       -2.5481686067        0.8616875965
 C          5.2501666395       -3.6670759654        0.1741444312
 H          5.6495205944       -3.8258797171       -0.8280047346
 H          5.4297480866       -4.5804402202        0.7447690447
 C          3.7363068363       -3.4244825966        0.0951214443
 H          3.2058683602       -4.3317957376        0.3925560863
 H          3.4542959575       -2.6431925466        0.8047477696
 C          3.2269529586       -3.0371473460       -1.2932591172
 H          2.1527414879       -2.8473431405       -1.2230113214
 H          3.3788814386       -3.8689566125       -1.9846636418
 C          3.8904074824       -1.7853417733       -1.8820746089
 H          3.3160526083       -1.4726338086       -2.7574762960
 H          4.9102597259       -2.0097557300       -2.1936696626
 H          5.5746977429       -2.3218158512        1.8268595585
 H          7.0475262905       -2.9077772655        1.0525227887
 H          6.5108341899       -1.4685901931       -0.9475171226
 H          6.8863992340       -0.6032756946        0.5526936428
 O          4.8435770132        0.5280392905        0.9177422356
 C          3.7441225739        1.3622542237        1.0388849747
 O          3.8260593187        2.1909667683        1.9686304091
 O          1.7656703945        0.0652789494       -1.7062947883
 C          1.4954353575        2.1343707972        0.2827195841
 C          0.2445004839        1.3195176459        0.5070160538
 C          0.2281841322        0.3988629678        1.5521142732
 C         -0.8901967249       -0.3730053819        1.7978084749
 C         -2.0194297334       -0.2462183905        1.0069134149
 C         -2.0196319405        0.6764600146       -0.0288330842
 C         -0.8942949856        1.4568840185       -0.2691584795
 H         -0.9113157761        2.1676268305       -1.0805850293
 N         -3.1563287624        0.8048058689       -0.8414596487
 S         -4.6707572546        0.8977543816       -0.1308182757
 O         -5.4996626619        1.5782020336       -1.1017006103
 O         -4.6032057979        1.4924189868        1.1838717686
 C         -5.1958375688       -0.7992684603       -0.0089083020
 C         -5.1875271809       -1.5684589032       -1.1559159613
 C         -5.6023858721       -2.8883278230       -1.0793368219
 C         -6.0192749901       -3.4130497391        0.1350420540
 C         -6.0255604040       -2.6266975059        1.2768342130
 C         -5.6108592958       -1.3057504746        1.2070559578
 H         -5.5939408364       -0.6590100410        2.0699855125
 H         -6.3504412896       -3.0362547069        2.2198313941
 H         -6.3411297007       -4.4409593895        0.1916892822
 H         -5.5983507061       -3.5031477151       -1.9650080969
 H         -4.8588073540       -1.1239799600       -2.0804852121
 H         -3.0566091156        1.4730083915       -1.5913142743
 H         -2.8934332460       -0.8495850358        1.1895066808
 H         -0.8838519134       -1.0845897941        2.6096922234
 H          1.1116641158        0.2973361337        2.1685814129
 H          1.6781419879        2.7308308212        1.1885087628
 C          1.4177881467        3.0685970685       -0.9064417491
 C          0.7510517721        4.4040695136       -0.7728023143
 C          2.2420290626        4.3192601161       -0.8985357788
 H          2.7016226726        4.6401755816       -1.8212899211
 H          2.8436164924        4.5109487903       -0.0218606029
 H          0.1886574408        4.7885573645       -1.6106957568
 H          0.3366952813        4.6621801142        0.1903090216
 H          1.3241740312        2.5393267014       -1.8478960634
