  62
        -98.94310349
 C          2.5587155579        0.1772276247        0.5321312278
 C          2.1989407277       -0.3618954204       -0.7286168258
 C          1.9830029575       -1.8168134924       -0.7675682092
 C          2.0890831372       -2.5335267969        0.3646410400
 C          1.8674654355       -4.0142335522        0.4739928049
 C          0.4124072321       -4.3442114056        0.8310177644
 C         -0.6199137931       -3.6447190347       -0.0536962571
 H         -1.6052878634       -4.0041277796        0.2531976823
 H         -0.6023668117       -2.5695533416        0.1433099518
 C         -0.4346921982       -3.8808014712       -1.5591650061
 H          0.1904657022       -4.7596740410       -1.7249964507
 H         -1.4117067319       -4.0875793440       -2.0006503215
 C          0.1502607721       -2.6843299004       -2.3125132531
 H         -0.0031229614       -2.8449784235       -3.3833522202
 H         -0.3931012731       -1.7797875300       -2.0287278411
 C          1.6477114836       -2.4294451148       -2.0980439679
 H          2.2071403424       -3.3561535529       -2.2475590882
 H          1.9720609284       -1.7049190423       -2.8508885456
 H          0.2322997229       -4.0443208740        1.8662886833
 H          0.2796244997       -5.4259207947        0.7611959037
 H          2.1361182709       -4.4845317409       -0.4701141521
 H          2.5196634971       -4.3989931998        1.2604150914
 O          2.3915705761       -1.9758408247        1.5664731542
 C          2.6104857382       -0.6133784359        1.6813524018
 O          2.8467718026       -0.2316798720        2.8470827203
 H          0.2017634744        1.2405628613        1.1424112514
 C          0.3443834165        2.0329046973        0.4198995504
 C          1.6342101807        2.4164249624        0.0736060623
 C          1.7970963373        3.4404066288       -0.8491110503
 C          0.6907045670        4.0404575646       -1.4261804809
 C         -0.5896108752        3.6243784083       -1.1123448109
 C         -0.7622306264        2.6064956416       -0.1805539095
 N         -2.0464889643        2.1538194700        0.1771564063
 S         -2.2109943409        0.4947228907        0.4638006200
 O         -1.8505503915        0.2237479607        1.8349283654
 O         -1.5121078545       -0.2610837223       -0.5476543316
 C         -3.9736019307        0.3040247718        0.2706554221
 C         -4.4757147511       -0.3135124896       -0.8585950409
 C         -5.8495250757       -0.4327982686       -1.0023540492
 C         -6.6922493091        0.0680007697       -0.0217852882
 C         -6.1730124851        0.6850473533        1.1070999199
 C         -4.8009088412        0.8053372745        1.2582519116
 H         -4.3508664078        1.2667540029        2.1217821867
 H         -6.8311320456        1.0709372199        1.8687308401
 H         -7.7605748661       -0.0255320799       -0.1362835161
 H         -6.2551769898       -0.9150671218       -1.8770273343
 H         -3.7805010592       -0.6907805520       -1.5914266957
 H         -2.7629221421        2.4865710978       -0.4546066006
 H         -1.4485411794        4.0754361053       -1.5858558745
 H          0.8296623663        4.8304126491       -2.1488128733
 H          2.7878126456        3.7492878793       -1.1394697662
 C          2.7695449326        1.6701171076        0.7308190324
 H          2.6790249697        1.8218745435        1.8202140371
 C          4.1483983512        2.1778774405        0.3373165801
 C          5.3332918374        1.2597598428        0.3205579794
 C          4.7979921585        1.8154631095       -0.9630398833
 H          5.3780173116        2.5712951506       -1.4723227163
 H          4.2544988387        1.1594206673       -1.6236224334
 H          6.2754590521        1.6327764000        0.6933628368
 H          5.1584413544        0.2160822001        0.5397921270
 H          4.3287901796        3.1821473684        0.7087689882
 O          2.0815897089        0.3218268236       -1.7781773587
