  62
        -98.93642426
 C         -1.7040295154       -0.3196842391       -0.3656089552
 C         -2.8922001441       -0.7200182118       -1.0201063682
 C         -4.1404017274       -0.5390440438       -0.2640448425
 C         -4.0828924181       -0.0340185740        0.9820145301
 C         -5.2692567678        0.2828422982        1.8477268570
 C         -5.9236403802        1.5994312899        1.3822587186
 C         -7.3382983605        1.4381879544        0.8255153275
 H         -7.6074658126        2.3782051464        0.3391104021
 H         -8.0316814471        1.2865747615        1.6554631479
 C         -7.5379546385        0.2887197395       -0.1670023817
 H         -8.4938022119        0.4620065188       -0.6660885409
 H         -7.6375441835       -0.6523697167        0.3759825108
 C         -6.4479455784        0.1263977254       -1.2343045431
 H         -5.9296989665        1.0706717539       -1.4022839897
 H         -6.9319639591       -0.1421055287       -2.1755903985
 C         -5.4147933537       -0.9753323377       -0.9327552928
 H         -5.0943625912       -1.4211716657       -1.8791813833
 H         -5.8861118393       -1.7655070258       -0.3415003755
 H         -5.2818359456        2.0506101286        0.6227441409
 H         -5.9630856733        2.3010469770        2.2168012706
 H         -4.9075933781        0.3792406608        2.8715452842
 H         -5.9843780712       -0.5357106225        1.8061466000
 O         -2.9187721277        0.3258460183        1.5822583564
 C         -1.7010045137        0.1936440149        0.9311060632
 O         -0.7171850852        0.5598863475        1.5997032520
 O         -2.9073507716       -1.2123863714       -2.1812479355
 C         -0.3781840870       -0.4719641832       -1.0883652916
 C          0.5384681213       -1.3802459903       -0.3072975450
 C          0.0506168721       -2.6062829437        0.1394301166
 C          0.8524555656       -3.4624603446        0.8674653553
 C          2.1622849759       -3.1208784658        1.1567719042
 C          2.6625030427       -1.9052847999        0.7082957858
 C          1.8516769821       -1.0449766392       -0.0207743153
 H          2.2591677736       -0.1092535567       -0.3630729683
 N          3.9748172190       -1.5196079457        1.0091266905
 S          4.8799648667       -0.6182642553       -0.0647265308
 O          4.6233275939       -0.9994874704       -1.4340309397
 O          6.2449246524       -0.7824402988        0.3893061919
 C          4.3791717942        1.0682976699        0.2081275542
 C          4.3361483542        1.9310514674       -0.8692702701
 C          3.9784798643        3.2531198857       -0.6570860816
 C          3.6732330564        3.6874344538        0.6234306616
 C          3.7257968113        2.8095000885        1.6952836077
 C          4.0853807971        1.4871469768        1.4903013690
 H          4.1279952091        0.7788940155        2.3007459765
 H          3.4830300120        3.1495724828        2.6891859918
 H          3.3905950116        4.7155161056        0.7867445051
 H          3.9367367771        3.9378573442       -1.4893860507
 H          4.5719396434        1.5471111586       -1.8493381578
 H          4.5285226236       -2.2047581114        1.5010191515
 H          2.7898799135       -3.7877461182        1.7282320294
 H          0.4577721506       -4.4069586039        1.2110205401
 H         -0.9719504656       -2.8753783266       -0.0883795864
 H         -0.6183634961       -0.9687598346       -2.0404831456
 C          0.2185643592        0.8875240983       -1.3855381797
 C          1.1306999026        1.0724529509       -2.5599650034
 C         -0.2561015574        1.6388120888       -2.5918312856
 H         -0.3780752830        2.7088285658       -2.5178855217
 H         -0.9932262398        1.1569303831       -3.2174767158
 H          1.9609843341        1.7549805688       -2.4615693320
 H          1.3453652216        0.2065793164       -3.1681892778
 H          0.4201835079        1.4593432930       -0.4862973942
