  62
        -98.94468658
 C          2.0123280001        0.7553636777        0.5618830658
 C          1.9529006644        0.0505396252       -0.6645296811
 C          2.0042964933       -1.4117054615       -0.5613414558
 C          2.0443243529       -1.9956931906        0.6495344456
 C          2.0502125954       -3.4763665718        0.9193137108
 C          3.4377205622       -4.1267786711        0.8278245545
 C          3.9977236470       -4.2702805843       -0.5878571508
 H          4.8641420893       -4.9313679039       -0.5235158351
 H          3.2578962473       -4.7615207353       -1.2204100814
 C          4.4325708257       -2.9474267429       -1.2336778607
 H          5.4128182883       -3.0738193362       -1.6984832209
 H          4.5392500063       -2.1827951701       -0.4608799919
 C          3.4826419416       -2.4273790831       -2.3126615969
 H          3.8659918162       -1.4705171483       -2.6754887241
 H          3.4645658897       -3.1246212011       -3.1531075010
 C          2.0426372727       -2.2067400355       -1.8309090124
 H          1.5035452141       -1.6350262363       -2.5903963469
 H          1.5369203131       -3.1626020694       -1.6942345947
 H          3.3582378498       -5.1236706624        1.2674541627
 H          4.1338712990       -3.5479297137        1.4390361078
 H          1.6729723038       -3.6059349481        1.9363048667
 H          1.3642114052       -3.9721008345        0.2314563806
 O          2.0660409420       -1.2825845724        1.8086190015
 C          2.0533226236        0.1027237676        1.7920082765
 O          2.0837418467        0.6312486599        2.9241606692
 H         -0.4685013131        1.1704251780        0.9480082835
 C         -0.5226070366        1.9723944520        0.2247136093
 C          0.6262963266        2.6826307767       -0.0998296713
 C          0.5270197372        3.7221337436       -1.0151777595
 C         -0.6873433981        4.0110458488       -1.6142258922
 C         -1.8166716100        3.2674070176       -1.3268028099
 C         -1.7312856387        2.2385973554       -0.3946279336
 N         -2.8604578476        1.4721592495       -0.0549567821
 S         -2.6276408881       -0.1517011086        0.3485464691
 O         -2.2656697678       -0.2350672726        1.7427972403
 O         -1.7305655735       -0.7869066706       -0.5898620114
 C         -4.2878898872       -0.7666806810        0.1288128257
 C         -4.6232356304       -1.4100935351       -1.0474397289
 C         -5.9246877073       -1.8548049201       -1.2209812899
 C         -6.8641458778       -1.6464812004       -0.2224237220
 C         -6.5126241867       -0.9993583897        0.9530668397
 C         -5.2129003841       -0.5536090951        1.1335386996
 H         -4.8893192709       -0.0548861592        2.0322530939
 H         -7.2446619218       -0.8414295759        1.7284763371
 H         -7.8759761236       -1.9934102387       -0.3599672488
 H         -6.1995135560       -2.3611752535       -2.1321791038
 H         -3.8561399743       -1.5554175748       -1.7912844234
 H         -3.6212679574        1.5845814260       -0.7114918284
 H         -2.7555544521        3.4772026948       -1.8161512291
 H         -0.7500062040        4.8161246314       -2.3306038622
 H          1.4026726965        4.2959732318       -1.2709956985
 C          1.9192648181        2.2707379283        0.5634359593
 H          1.8766635222        2.5738482459        1.6204982736
 C          3.1489039687        2.8822605605       -0.0749711003
 C          3.6382080360        4.2296649669        0.3614735450
 C          4.4024923126        2.9969709024        0.7374064877
 H          5.3491655801        2.8064547611        0.2546720368
 H          4.3586915490        2.6572414419        1.7623030462
 H          4.0654848364        4.8879404279       -0.3798112512
 H          3.0832860691        4.7357986511        1.1368889515
 H          3.2511854753        2.6099263703       -1.1191351420
 O          1.8638292722        0.6131692474       -1.7874492308
