  62
        -98.93848290
 C         -2.5248542040       -1.1981449401        0.2281941080
 C         -2.6744781378       -0.3652877494       -0.9047335569
 C         -3.5561169769        0.8060554870       -0.7455111282
 C         -4.1553687609        1.0291288749        0.4391743183
 C         -5.1303797802        2.1033555277        0.8747628378
 C         -5.3185346459        3.3709549355        0.0449863702
 C         -4.0995869062        4.2915096132       -0.0052581004
 H         -3.9525326864        4.7283440454        0.9858613916
 H         -4.3164442792        5.1067216960       -0.6988325551
 C         -2.7869057219        3.6278855577       -0.4150646779
 H         -2.5050335377        2.8816098313        0.3311827875
 H         -2.0083651998        4.3957481340       -0.4094330731
 C         -2.7857811204        2.9748719339       -1.7961566138
 H         -1.7558276490        2.6848905464       -2.0215127457
 H         -3.1008249247        3.7027388018       -2.5461538737
 C         -3.6595903515        1.7159018724       -1.9352650633
 H         -3.2905375224        1.1430193416       -2.7908551743
 H         -4.6969638935        1.9724416867       -2.1353366039
 H         -6.1337512284        3.9293855236        0.5131189021
 H         -5.6462835642        3.1187844527       -0.9590996985
 H         -4.8309491077        2.3815375514        1.8903721167
 H         -6.1011273475        1.6036605722        0.9668613484
 O         -3.9759123501        0.1944416514        1.5065368419
 C         -3.1566580292       -0.9186539064        1.4367978257
 O         -3.0693258779       -1.5621589170        2.5035029021
 O         -2.1027951907       -0.5864186885       -2.0031616504
 C         -1.6298215312       -2.4201784944        0.1552643915
 C         -0.2240300388       -2.0292979356       -0.2350757249
 C          0.5576908190       -2.7834112220       -1.1006432071
 C          1.8505436871       -2.3907740612       -1.4018369894
 C          2.3914843740       -1.2436626431       -0.8517179910
 C          1.6230550118       -0.4874689325        0.0236698870
 C          0.3328266595       -0.8892426239        0.3312516222
 H         -0.2606404225       -0.3002170774        1.0213960427
 N          2.1638439911        0.6867619132        0.5827903992
 S          3.5982941222        0.5324009746        1.4465644546
 O          3.7164768633       -0.7799426302        2.0399352802
 O          3.6144262910        1.6544938783        2.3599451427
 C          4.8671089465        0.7633966657        0.2195124355
 C          4.8613315887        1.9350403839       -0.5119075608
 C          5.8479324001        2.1331583310       -1.4645698859
 C          6.8195545524        1.1638924416       -1.6659312958
 C          6.8134430132       -0.0052268199       -0.9206600612
 C          5.8282623065       -0.2106514077        0.0328094944
 H          5.7789097204       -1.1059939260        0.6315875435
 H          7.5697715540       -0.7571895804       -1.0783512249
 H          7.5862363845        1.3211213851       -2.4080788909
 H          5.8557983514        3.0409039546       -2.0461608771
 H          4.0909626740        2.6637067874       -0.3218515531
 H          1.4942389521        1.2188893608        1.1200230753
 H          3.3938198564       -0.9287341370       -1.0920396584
 H          2.4437805024       -2.9849845997       -2.0798755904
 H          0.1529527703       -3.6793309785       -1.5419695217
 H         -1.5933370779       -2.8322058349        1.1753865794
 C         -2.2428680272       -3.4557110962       -0.7658693661
 C         -2.0441743268       -4.9176719957       -0.5048744276
 C         -3.3804219642       -4.2869809481       -0.2563235003
 H         -4.1945178941       -4.5155450941       -0.9275232697
 H         -3.6904751609       -4.1257163839        0.7663600584
 H         -1.9441842217       -5.5835640595       -1.3487649225
 H         -1.4505137803       -5.1974527848        0.3524652466
 H         -2.2907715981       -3.1178292848       -1.7946175645
