  62
        -98.94367130
 C          2.6201671818        0.1614623346       -0.2405005612
 C          2.1772012740        0.9542752458        0.8474783214
 C          1.7229298821        2.3134896904        0.5091559761
 C          1.7152542596        2.7141328987       -0.7738060119
 C          1.2386796098        4.0530377999       -1.2574909552
 C         -0.2495126646        4.0238023136       -1.6289121357
 C         -1.1497121275        3.4168544048       -0.5519325399
 H         -2.1804778184        3.5081240020       -0.9036269241
 H         -0.9422465484        2.3470358016       -0.4661955636
 C         -1.0228559150        4.0726488253        0.8299005308
 H         -0.5679323843        5.0598517993        0.7323233166
 H         -2.0249381335        4.2135318456        1.2405407312
 C         -0.2388912113        3.2480827623        1.8528455415
 H         -0.4147172220        3.6783760850        2.8430556531
 H         -0.6242201964        2.2251338380        1.8675050657
 C          1.2800681665        3.1935283894        1.6441859680
 H          1.6718871487        4.2060082910        1.5196443409
 H          1.7219978114        2.7612502188        2.5469624128
 H         -0.5704363413        5.0463121648       -1.8388828988
 H         -0.3676685248        3.4330888267       -2.5402779733
 H          1.4150315383        4.7951631784       -0.4809835721
 H          1.8183693904        4.3210358247       -2.1428543321
 O          2.1289873086        1.9209996343       -1.7953939424
 C          2.5695698540        0.6327133256       -1.5549961056
 O          2.9101711440        0.0105269303       -2.5834536914
 O          2.1608059114        0.5758348081        2.0492802832
 C          3.0813628682       -1.2805100926       -0.1050834953
 C          1.9100819649       -2.2279264146       -0.2422553298
 C          2.0563695258       -3.4573398574       -0.8759522085
 C          0.9708655979       -4.2984351257       -1.0407594647
 C         -0.2877467131       -3.9166604726       -0.6110562663
 C         -0.4419848316       -2.6933587111        0.0295991255
 C          0.6592551289       -1.8767240280        0.2387165693
 H          0.5172811303       -0.9396618204        0.7545225439
 N         -1.6989645438       -2.2463577695        0.4684782447
 S         -2.0098556155       -0.5912515674        0.2806937315
 O         -1.4016087486       -0.1120878001       -0.9394222665
 O         -1.6485293621        0.0853067075        1.4995106114
 C         -3.7858906068       -0.6052672087        0.1168257878
 C         -4.5653717526       -0.6025692689        1.2580675317
 C         -5.9443021483       -0.6499364886        1.1269377165
 C         -6.5172797552       -0.6997683178       -0.1352161623
 C         -5.7220881940       -0.6992503546       -1.2715204654
 C         -4.3423709312       -0.6532111524       -1.1473352888
 H         -3.6833884595       -0.6409362267       -2.0009605095
 H         -6.1697626522       -0.7338982223       -2.2516522915
 H         -7.5905816991       -0.7361272336       -0.2344341710
 H         -6.5656377454       -0.6468090326        2.0078223480
 H         -4.0738753448       -0.5532791069        2.2157662127
 H         -2.4626082940       -2.8153714914        0.1289661882
 H         -1.1429985805       -4.5550994615       -0.7727069878
 H          1.0992749345       -5.2494236227       -1.5348743556
 H          3.0245709231       -3.7425155536       -1.2589488864
 H          3.7486047728       -1.4636195546       -0.9602924491
 C          3.8507743048       -1.5721425073        1.1684322598
 C          4.9002935960       -2.6412060049        1.1698591053
 C          5.2991040991       -1.1991251085        1.2532080792
 H          5.6751862577       -0.8139068150        2.1886321914
 H          5.7459822954       -0.7420575790        0.3819998247
 H          5.0041123422       -3.2550867706        2.0511288229
 H          5.0922769881       -3.1623277946        0.2444772308
 H          3.2545524021       -1.4483441282        2.0629754694
