  62
        -98.94690487
 C         -0.6540532955       -1.7278897324       -0.7084847333
 C         -1.8368729246       -1.9268707761        0.0487757025
 C         -2.9237650207       -0.9637893566       -0.1609283929
 C         -2.7524778933        0.0339901536       -1.0459947966
 C         -3.7717698569        1.0922503779       -1.3561427004
 C         -3.5906410119        2.3385698268       -0.4794356874
 C         -3.4183828468        2.0334977440        1.0087063936
 H         -2.4722965933        1.5078698321        1.1665227900
 H         -3.3306792305        2.9916125129        1.5275915256
 C         -4.5689458723        1.2256900110        1.6259425322
 H         -4.8244598352        1.6695671169        2.5905913225
 H         -5.4533045617        1.2975784500        0.9909566096
 C         -4.2506793067       -0.2478409617        1.8870827480
 H         -5.0296036029       -0.6527547143        2.5391602646
 H         -3.3004974573       -0.3242267136        2.4229956499
 C         -4.1776233645       -1.1458259213        0.6455125368
 H         -4.1677875116       -2.1856509612        0.9853873939
 H         -5.0650776279       -0.9939036183        0.0274195748
 H         -4.4576431543        2.9875648816       -0.6199143545
 H         -2.7056919605        2.8819431137       -0.8190283230
 H         -4.7670599561        0.6772219157       -1.2076534781
 H         -3.6607224920        1.3772961877       -2.4039461787
 O         -1.6084161424        0.1991019689       -1.7521846737
 C         -0.5184139238       -0.6461321837       -1.5792095096
 O          0.4708771013       -0.3159907665       -2.2612158189
 O         -1.9799779982       -2.8845220201        0.8578582925
 C          0.4823718746       -2.7000597371       -0.4436776083
 C          1.3555200212       -2.1919073610        0.6807068332
 C          1.8097918687       -3.0408106683        1.6833820542
 C          2.5728875969       -2.5495868187        2.7277368673
 C          2.8661069959       -1.1999166834        2.8123672530
 C          2.4163091933       -0.3448011424        1.8137198499
 C          1.7001548617       -0.8506651961        0.7402935984
 H          1.3763037509       -0.1782662036       -0.0375013439
 N          2.6580644477        1.0364288844        1.8607864502
 S          1.4294953226        2.0692107707        1.3693830470
 O          1.7004514180        3.3082670488        2.0726845347
 O          0.1241347009        1.4943870325        1.6007944081
 C          1.7080696799        2.3420679409       -0.3650682237
 C          2.9935465674        2.3090074356       -0.8659608562
 C          3.1903403476        2.5723505445       -2.2115938846
 C          2.1082012658        2.8687437420       -3.0255641230
 C          0.8249904981        2.9037889956       -2.5051388601
 C          0.6218842970        2.6396056305       -1.1611883875
 H         -0.3618206857        2.6337779620       -0.7177333655
 H         -0.0191988091        3.1200682615       -3.1401874729
 H          2.2634405685        3.0655001705       -4.0747541760
 H          4.1864641024        2.5390133100       -2.6232276018
 H          3.8103294802        2.0650991205       -0.2069399948
 H          3.1102974937        1.3661762374        2.7014340783
 H          3.4282896329       -0.8085420858        3.6465643903
 H          2.9204010035       -3.2189861219        3.4999238040
 H          1.5442839276       -4.0869065849        1.6530301777
 H          0.0018519968       -3.6250596091       -0.0946248743
 C          1.3263870975       -3.0267689639       -1.6596191594
 C          2.0441714961       -4.3403086975       -1.7236163052
 C          0.8646741708       -4.0864245833       -2.6126578185
 H          1.0309270358       -3.9344356897       -3.6682073851
 H         -0.0631613232       -4.5913931060       -2.3858508119
 H          3.0269640112       -4.3662757424       -2.1681101292
 H          1.9160700257       -5.0255310056       -0.8996993652
 H          1.8191688909       -2.1604675039       -2.0807543840
