  62
        -98.93172912
 C         -1.4977500691       -0.5809389529        1.0891575387
 C         -2.2036939063        0.1181161334        0.0815747566
 C         -2.2178122979        1.5886724777        0.1950893039
 C         -1.5351257522        2.1836479440        1.1867948458
 C         -1.4364279234        3.6502750406        1.5309434197
 C         -1.3177246120        4.6553569338        0.3802161105
 C         -0.4827869081        4.1785613227       -0.8170227613
 H          0.0528278817        3.2584654600       -0.5740558348
 H          0.2668460547        4.9362919758       -1.0547860716
 C         -1.3232531918        3.9330034836       -2.0715318870
 H         -0.6638021905        3.9613125113       -2.9424575111
 H         -2.0524324983        4.7397529872       -2.1806696794
 C         -2.0446954117        2.5874834617       -2.0960695646
 H         -1.3025058537        1.7851760698       -2.1438841503
 H         -2.6402865158        2.5355285879       -3.0112001532
 C         -2.9602798922        2.3127994892       -0.8906278601
 H         -3.7527879911        1.6335291691       -1.2166169383
 H         -3.4180235013        3.2298396735       -0.5262665457
 H         -0.8699367300        5.5588140484        0.7987217951
 H         -2.3123045857        4.9310794668        0.0322386740
 H         -2.3064995994        3.9107340919        2.1419833425
 H         -0.5576408932        3.7321259331        2.1759171095
 O         -0.8275323417        1.4693891528        2.1098309777
 C         -0.7811579115        0.0864570548        2.0786026616
 O         -0.0770553997       -0.4244659460        2.9746432921
 H          0.8678521429       -1.2335155072        0.1949918616
 C          0.4090439278       -1.8377382435       -0.5754039127
 C         -0.8159498948       -2.4486799927       -0.3108008319
 C         -1.3728153969       -3.2308062870       -1.3128358448
 C         -0.7361657307       -3.3628409855       -2.5375152239
 C          0.4449425926       -2.7009274763       -2.8098013973
 C          1.0177506093       -1.9187012462       -1.8132357401
 N          2.2067143340       -1.2028049967       -2.0273019018
 S          2.3469416988        0.3241760731       -1.3470264999
 O          1.0713709239        0.9902962308       -1.2405554524
 O          3.3413706739        0.9902262637       -2.1648735285
 C          3.0452305241        0.0310047606        0.2625630570
 C          4.0430613035       -0.9149199122        0.3921921114
 C          4.6072799475       -1.1232884976        1.6400282515
 C          4.1704645680       -0.3841972032        2.7293754456
 C          3.1738402436        0.5671463101        2.5811356791
 C          2.6066162307        0.7801724151        1.3351328459
 H          1.8153408225        1.4984202133        1.1844762817
 H          2.8218914546        1.1342352371        3.4277241472
 H          4.6056315046       -0.5513427505        3.7020229542
 H          5.3823948721       -1.8627891364        1.7614341822
 H          4.3523257593       -1.4719199865       -0.4764676910
 H          2.5518515515       -1.2239764822       -2.9760804386
 H          0.9132422487       -2.7751924962       -3.7794495955
 H         -1.1906570780       -3.9725222043       -3.3040067999
 H         -2.3178009555       -3.7238225492       -1.1766163802
 C         -1.3807030474       -2.1023141156        1.0471819577
 H         -0.5953015470       -2.3460301621        1.7824780070
 C         -2.6563057962       -2.7270331108        1.5875539639
 C         -3.9065211019       -2.9760136111        0.8038727974
 C         -3.1079370055       -4.1331712886        1.3284740454
 H         -3.5152808648       -4.6879625167        2.1609623227
 H         -2.5398823540       -4.7396194605        0.6426243725
 H         -3.8983390153       -2.7393228619       -0.2471627559
 H         -4.8482594303       -2.7483285723        1.2828507711
 H         -2.8106788830       -2.3677589237        2.6034305245
 O         -2.8112689955       -0.4479228380       -0.8616881528
