  62
        -98.94868720
 C         -1.6499008851       -1.2452231089       -0.3175447759
 C         -0.5858352015       -1.6760641981       -1.1435215086
 C          0.3354502598       -2.6480063400       -0.5468323408
 C          0.1566799560       -3.0388202557        0.7281181460
 C          0.9871567743       -4.0526971279        1.4679409909
 C          2.2808776966       -3.4844971744        2.0656588717
 C          3.3886707771       -3.1940919506        1.0529576326
 H          4.3082744943       -3.0407929328        1.6214882158
 H          3.5392932939       -4.0674045690        0.4171187543
 C          3.1384463004       -1.9538416880        0.1838472015
 H          2.3829148765       -1.3208278196        0.6577763917
 H          4.0579233398       -1.3662164029        0.1302922407
 C          2.7155772205       -2.2520504381       -1.2548430863
 H          3.5411580635       -2.7326129306       -1.7850167421
 H          2.5021988567       -1.3007275585       -1.7494841503
 C          1.4756853645       -3.1447603938       -1.3842176194
 H          1.1501475497       -3.1251496336       -2.4274287705
 H          1.7226794189       -4.1714726820       -1.1137677786
 H          2.6562445084       -4.2147434971        2.7867551214
 H          2.0405586110       -2.5681738197        2.6111244396
 H          1.2259139833       -4.8854046027        0.8050395872
 H          0.3645538041       -4.4251213104        2.2844324317
 O         -0.8524907489       -2.5654289959        1.5058451027
 C         -1.7644578003       -1.6447113886        1.0137519804
 O         -2.6238960533       -1.2814765923        1.8407615804
 O         -0.4219661154       -1.2761460635       -2.3284857658
 C         -2.6501302364       -0.2422556063       -0.8649553435
 C         -2.5661624589        1.0282391603       -0.0566699247
 C         -3.6685504842        1.7000499985        0.4531770870
 C         -3.4955065056        2.8331278729        1.2302985294
 C         -2.2310832892        3.3111216203        1.5194077744
 C         -1.1214554254        2.6552234280        0.9957967491
 C         -1.2991377668        1.5405870655        0.1947039742
 H         -0.4367874294        1.0249037324       -0.2023676560
 N          0.1757106215        3.1285968799        1.2378234374
 S          1.5095903738        2.1263474218        1.2250705140
 O          1.1928650081        0.7755222847        1.6303084393
 O          2.4875450617        2.8106754527        2.0462415760
 C          2.0917042470        2.1400235013       -0.4603348351
 C          3.2944199651        1.5031611928       -0.6961740874
 C          3.8036792607        1.4722427535       -1.9838316148
 C          3.1053884114        2.0840911578       -3.0133964005
 C          1.9065914856        2.7305737863       -2.7595067040
 C          1.3909516454        2.7631431756       -1.4722939835
 H          0.4579212010        3.2568711204       -1.2565277506
 H          1.3653349607        3.2083919858       -3.5603014535
 H          3.4979796888        2.0568818294       -4.0175985300
 H          4.7379814483        0.9707586474       -2.1790575315
 H          3.8044622315        1.0458483748        0.1362680019
 H          0.2557480296        3.8673088946        1.9196142973
 H         -2.0980498190        4.1795867827        2.1461523378
 H         -4.3590243158        3.3423925313        1.6306481953
 H         -4.6612160162        1.3290556633        0.2582746673
 H         -2.3150027135       -0.0246130187       -1.8901650232
 C         -4.0392375207       -0.8408794025       -0.9191590494
 C         -5.0298533887       -0.3597773621       -1.9360508525
 C         -4.4071518662       -1.7149556970       -2.0793051426
 H         -5.0155993183       -2.5873365520       -1.8940619194
 H         -3.6609753392       -1.8587641277       -2.8469837498
 H         -6.0706474706       -0.3030487020       -1.6550974257
 H         -4.7118608491        0.4170877605       -2.6144990599
 H         -4.4051809037       -1.1288075241        0.0600709504
