  62
        -98.93752529
 C          0.2058915878        1.8358961961        0.4903816252
 C          1.1756917907        1.0675510162        1.1764753646
 C          2.3454813235        0.6134667833        0.4021076135
 C          2.4304460622        0.9404158427       -0.8994613679
 C          3.4992097820        0.5786218439       -1.9006322763
 C          4.9593952698        0.6480301431       -1.4277850444
 C          5.6114166742       -0.7248432262       -1.2508865305
 H          5.2731175698       -1.3749376399       -2.0607664137
 H          6.6931343627       -0.6127476244       -1.3530524668
 C          5.3418707210       -1.4071081269        0.0890141001
 H          5.7401270089       -2.4225245184        0.0282190444
 H          5.8918982118       -0.8876033127        0.8765200599
 C          3.8691523782       -1.4815109779        0.4963264277
 H          3.7603922869       -2.3029576484        1.2077272707
 H          3.2491469240       -1.7259374501       -0.3670964136
 C          3.3545596098       -0.1986972736        1.1680031443
 H          4.1969616831        0.4444107399        1.4373833709
 H          2.8516087636       -0.4463493446        2.1079324256
 H          5.0236770543        1.2224359522       -0.5051353436
 H          5.5249422483        1.1917357428       -2.1863788492
 H          3.2754020547       -0.4203073776       -2.2861518759
 H          3.3462993448        1.2680002885       -2.7346857022
 O          1.4673363753        1.6721802048       -1.5252382661
 C          0.3181522355        2.0934224418       -0.8770784182
 O         -0.4865647109        2.6888085355       -1.6175533480
 O          1.0625444791        0.7527851900        2.3924498041
 C         -1.0618693560        2.2058277117        1.2439467307
 C         -2.2380247576        1.7008682691        0.4467151879
 C         -3.2965545614        2.4842888848        0.0109979746
 C         -4.2851226946        1.9325900559       -0.7870464840
 C         -4.2259697655        0.6096233856       -1.1843033577
 C         -3.1723972195       -0.1848963544       -0.7441349044
 C         -2.2165055256        0.3564922207        0.0953760709
 H         -1.3996763008       -0.2604580968        0.4387776202
 N         -3.0624163919       -1.5318830605       -1.1199282024
 S         -1.5499841542       -2.2254113907       -1.3124457359
 O         -0.5656048352       -1.2894871893       -1.8046736134
 O         -1.7990688420       -3.3807737640       -2.1509422995
 C         -1.1256792136       -2.7882793916        0.3219162793
 C          0.0848734241       -2.4295613592        0.8791549600
 C          0.3977323040       -2.8800518162        2.1515619021
 C         -0.5002906727       -3.6812574334        2.8391033969
 C         -1.7100754418       -4.0391549198        2.2625983778
 C         -2.0290571788       -3.5903019735        0.9914550607
 H         -2.9569573002       -3.8460028574        0.5079598883
 H         -2.4052122768       -4.6624835520        2.8015078820
 H         -0.2543817569       -4.0259393566        3.8311132108
 H          1.3335386220       -2.5888824944        2.6007338084
 H          0.7510147861       -1.7897935338        0.3201172194
 H         -3.7132778402       -1.8348131645       -1.8294984555
 H         -4.9783573693        0.1953521520       -1.8380948541
 H         -5.1012382208        2.5515677049       -1.1281582669
 H         -3.3329050960        3.5306332711        0.2662301667
 H         -1.0022872139        1.6139598609        2.1732149118
 C         -1.1745865549        3.6603185711        1.6682815366
 C          0.0506177432        4.4999319974        1.8696808069
 C         -0.8875015092        4.8020208356        0.7416721542
 H         -1.5051006865        5.6855009576        0.8149884493
 H         -0.5813713428        4.5642698296       -0.2644123000
 H          0.0805352202        5.1738730977        2.7126732431
 H          1.0050378334        4.0528126126        1.6312520830
 H         -1.9783311889        3.8090542274        2.3830678125
