  62
        -98.93130964
 C         -2.3106174740       -1.4413210250        0.2019118515
 C         -2.6477690650       -0.3758216060       -0.6646854078
 C         -3.7736248362        0.4876897335       -0.2461519464
 C         -4.4060964784        0.2330104811        0.9123352224
 C         -5.5623836351        0.9665467394        1.5435396399
 C         -6.7187328279        1.3608462512        0.6116299579
 C         -6.8087923914        2.8665940052        0.3580553142
 H         -7.8342881081        3.1125287945        0.0736363018
 H         -6.5957737701        3.3894882644        1.2927063286
 C         -5.8863186558        3.3964811394       -0.7383859521
 H         -6.2578434837        3.0703745701       -1.7123339947
 H         -5.9419836990        4.4874543784       -0.7188611373
 C         -4.4193336540        2.9784294625       -0.6180102427
 H         -3.8188729589        3.7065765799       -1.1678686322
 H         -4.0943044786        3.0190386215        0.4209616373
 C         -4.1250810332        1.5907915847       -1.2076958100
 H         -3.2653076067        1.6540693380       -1.8823965268
 H         -4.9656360290        1.2630122091       -1.8264161839
 H         -6.6357945763        0.8218863222       -0.3309398830
 H         -7.6497419815        1.0432338391        1.0838309891
 H         -5.9276373715        0.2966802036        2.3252133851
 H         -5.1757748112        1.8540180111        2.0505107491
 O         -4.0290465863       -0.7904208083        1.7310393208
 C         -2.9948063238       -1.6432694663        1.4039242022
 O         -2.7831033904       -2.5379200681        2.2460759005
 O         -2.0485550901       -0.1288793360       -1.7451531418
 C         -1.2111345217       -2.4488440248       -0.0942580384
 C          0.1426887216       -1.9438907120        0.3330971907
 C          0.9861889211       -2.7290113400        1.1097349727
 C          2.2417136395       -2.2705864306        1.4694612314
 C          2.6805558376       -1.0236030828        1.0619294039
 C          1.8443920305       -0.2305687370        0.2870044794
 C          0.5858709801       -0.6913845550       -0.0692596968
 H         -0.0547267576       -0.0775027867       -0.6856039343
 N          2.2881993737        1.0394190506       -0.1364557237
 S          3.6630174876        1.0454168345       -1.1091089345
 O          3.5954102377        2.2764179089       -1.8655131789
 O          3.7679187896       -0.1759224787       -1.8743901975
 C          5.0071430847        1.1517133939        0.0536370026
 C          5.9744939774        0.1662796446        0.0791121530
 C          7.0151946141        0.2727476993        0.9887997200
 C          7.0697085167        1.3569679665        1.8512721755
 C          6.0916139313        2.3397763946        1.8107448410
 C          5.0493110765        2.2400951874        0.9030853235
 H          4.2717441660        2.9826079595        0.8353812922
 H          6.1380042163        3.1816075169        2.4826931920
 H          7.8794966674        1.4370938476        2.5591798327
 H          7.7767800947       -0.4897154079        1.0213761883
 H          5.8866987163       -0.6608401133       -0.6070012962
 H          1.5583492475        1.5755470480       -0.5859757159
 H          3.6570594512       -0.6611669222        1.3388386572
 H          2.8859560409       -2.8908570603        2.0735295055
 H          0.6477025268       -3.7011375327        1.4374665875
 H         -1.4508763964       -3.3209582643        0.5341314353
 C         -1.2263425751       -2.9215958339       -1.5437130732
 C         -0.1535423788       -2.6080714828       -2.5392438038
 C         -0.2810328963       -3.9963620227       -1.9924406967
 H         -0.6524711847       -4.7781011337       -2.6374423374
 H          0.4697616188       -4.3218311926       -1.2881577616
 H         -0.4592943301       -2.4177298287       -3.5570939539
 H          0.6894578899       -2.0103865177       -2.2270641807
 H         -2.2368886290       -2.9725752789       -1.9369836334
