  62
        -98.94367996
 C         -1.8361827006       -0.6637074305       -0.2483482105
 C         -3.1087119306       -1.2808907306       -0.2112754608
 C         -4.1472131806       -0.5669738912        0.5435447198
 C         -3.8355933206        0.5883517584        1.1593968005
 C         -4.8084808706        1.4461243978        1.9142673512
 C         -5.4523753207        2.4944124884        0.9959001020
 C         -6.0023218108        1.9183674193       -0.3089906083
 H         -6.4582469809        2.7425854396       -0.8617774677
 H         -5.1716003408        1.5467830398       -0.9132686887
 C         -7.0332060007        0.7963583891       -0.1225053590
 H         -7.8719584508        0.9749496395       -0.7986923688
 H         -7.4271448106        0.8198171984        0.8942513810
 C         -6.5056019506       -0.6066170407       -0.4286417701
 H         -7.3591711706       -1.2881138007       -0.4770570105
 H         -6.0273335807       -0.6117794799       -1.4114205401
 C         -5.5164984005       -1.1842379813        0.5916142994
 H         -5.9387859604       -1.1103527720        1.5959844995
 H         -5.3763888905       -2.2433705711        0.3555454787
 H         -4.6996897208        3.2461989086        0.7477529525
 H         -6.2563467907        2.9874242480        1.5454747724
 H         -5.5763719305        0.8141757274        2.3562707308
 H         -4.2685900805        1.9578658473        2.7128288115
 O         -2.5950138306        1.1369006085        1.1232958208
 C         -1.5653452806        0.5337454690        0.4141244303
 O         -0.4850003307        1.1484896891        0.4551585306
 H          1.9636379393       -1.0453286594       -1.5738163111
 C          1.7735732594       -1.4131598401       -0.5772681813
 C          0.4695448494       -1.6089471704       -0.1474558414
 C          0.2647629996       -2.0963565814        1.1405629383
 C          1.3309846097       -2.3552062619        1.9803128780
 C          2.6306409096       -2.1483860315        1.5513102981
 C          2.8481799495       -1.6768280806        0.2646701684
 N          4.1735420994       -1.4782470202       -0.1780832516
 S          5.0756093794       -0.2695507607        0.5502981992
 O          6.3876750394       -0.3470162102       -0.0504422810
 O          5.0130785696       -0.4359061017        1.9791338391
 C          4.2855008693        1.2530292296        0.0591527903
 C          3.0303688793        1.5414890692        0.5567798006
 C          2.3806956292        2.6838197895        0.1166227615
 C          3.0001735291        3.5197033602       -0.7998227580
 C          4.2657067091        3.2215491106       -1.2834305283
 C          4.9127240692        2.0723378603       -0.8593961392
 H          5.8912097091        1.7945218606       -1.2167528595
 H          4.7442311390        3.8759335411       -1.9944411379
 H          2.4902823890        4.4076045804       -1.1399171573
 H          1.3842490592        2.8849463392        0.4760629217
 H          2.5630173894        0.8794656987        1.2677063802
 H          4.2497748593       -1.3833343595       -1.1817041615
 H          3.4730148897       -2.3272297419        2.1989024879
 H          1.1504023898       -2.7243060226        2.9788692378
 H         -0.7483684204       -2.2622328117        1.4812368483
 C         -0.7205546007       -1.3291847699       -1.0314893411
 H         -1.1329848606       -2.2942528297       -1.3632905817
 C         -0.3798799208       -0.4998089690       -2.2533612305
 C          0.0918423491       -1.1585335081       -3.5146603110
 C         -1.2839021709       -0.5687578282       -3.4462776805
 H         -1.4864048910        0.3389994021       -3.9945281998
 H         -2.1274472609       -1.2412963783       -3.3891793609
 H          0.1801270392       -2.2346036881       -3.5157289618
 H          0.8334819190       -0.6533598477       -4.1154084607
 H          0.0336240292        0.4688771908       -1.9938816699
 O         -3.3618595606       -2.3782193102       -0.7788783516
