  62
        -98.94520892
 C         -2.0704768899       -1.4768332897       -0.0121336699
 C         -1.8873045397       -0.4755183801       -0.9964358003
 C         -2.8003046096        0.6752059000       -0.9180301809
 C         -3.7167016997        0.7310401905        0.0648697090
 C         -4.6581059796        1.8758713208        0.2984640584
 C         -4.0465055795        2.9138366611        1.2501368281
 C         -2.6287437194        3.3436473307        0.8718809680
 H         -2.3207252794        4.1034846610        1.5932167078
 H         -1.9532165096        2.4931325307        0.9892825685
 C         -2.4947944592        3.9022988002       -0.5515020822
 H         -1.8864507791        4.8083380501       -0.5192288625
 H         -3.4764842191        4.1881146201       -0.9310782624
 C         -1.8253025692        2.9496089697       -1.5433919817
 H         -0.8858404593        2.5824339797       -1.1236286914
 H         -1.5852725090        3.5143993193       -2.4480434419
 C         -2.6619202693        1.7382411896       -1.9716526513
 H         -3.6448723192        2.0686482596       -2.3138401516
 H         -2.1485109193        1.2618131692       -2.8119336011
 H         -4.7005729494        3.7875601012        1.2710227376
 H         -4.0186518997        2.4867900315        2.2552814382
 H         -4.9014398294        2.3403919204       -0.6551801018
 H         -5.5735020297        1.4828203010        0.7440495784
 O         -3.8561739599       -0.2433928891        0.9991839793
 C         -3.0448914500       -1.3631282292        0.9846345699
 O         -3.2848224102       -2.1796997988        1.8963436902
 H          0.9404288102       -1.7804571706       -1.3501197595
 C          1.1526274301       -1.9003983702       -0.2994822594
 C          0.1634154999       -2.3768830097        0.5478506807
 C          0.4431986497       -2.4811638692        1.9067646408
 C          1.6891389997       -2.1364935492        2.3983499408
 C          2.6784398199       -1.6734448596        1.5484584307
 C          2.4001873800       -1.5400369601        0.1940388906
 N          3.3883483202       -1.0669916206       -0.6878712395
 S          4.2719813403        0.3027897894       -0.3210566499
 O          4.9733636905        0.6325864389       -1.5401237699
 O          5.0921545602        0.0427480098        0.8356955203
 C          3.0828492704        1.5773356897        0.0553407094
 C          2.6609681707        2.4068708594       -0.9647044109
 C          1.7254741207        3.3899627996       -0.6874284014
 C          1.2174087706        3.5158183202        0.5967284284
 C          1.6447029904        2.6700246405        1.6080678988
 C          2.5901901003        1.6928270103        1.3398236193
 H          2.9560522201        1.0302859706        2.1063665197
 H          1.2461310203        2.7685240610        2.6051775087
 H          0.4837212007        4.2768662103        0.8101841380
 H          1.3933225309        4.0513186393       -1.4715402418
 H          3.0836894108        2.2781102389       -1.9481068308
 H          3.0774526903       -1.0300900010       -1.6480509595
 H          3.6578488799       -1.4112388896        1.9148009207
 H          1.8957481196       -2.2339379988        3.4535705008
 H         -0.3316702304       -2.8300617688        2.5748962208
 C         -1.2123217801       -2.7325716398        0.0375864107
 H         -1.6858552902       -3.3840620394        0.7837611609
 C         -1.1820483400       -3.4658426803       -1.2883240590
 C         -0.6862871802       -4.8791291004       -1.3250747384
 C         -2.1432602101       -4.5900099003       -1.5239578287
 H         -2.5639584800       -4.7097448206       -2.5111925987
 H         -2.8274434602       -4.8398269799       -0.7259723887
 H         -0.3806432403       -5.3243457200       -0.3901564382
 H         -0.1044026801       -5.2006298708       -2.1753084982
 H         -0.9551370698       -2.8293017707       -2.1333323093
 O         -1.0180724496       -0.5236254706       -1.9069226102
