  62
        -98.93833844
 C         -1.2173665900       -1.5475537502        0.3804506884
 C         -1.7076085903       -0.6085137010        1.3199334391
 C         -2.8664972904        0.2023419591        0.9104525296
 C         -3.3646921702        0.0440589400       -0.3273353605
 C         -4.4885802202        0.8100828504       -0.9680800001
 C         -3.9387879803        2.0042336711       -1.7669554690
 C         -3.7601126306        3.2900064805       -0.9614534379
 H         -3.2554527807        4.0102328611       -1.6097448773
 H         -4.7422424007        3.6993790201       -0.7135634777
 C         -2.9475610808        3.1450166596        0.3279397121
 H         -2.0679128506        2.5257044599        0.1363612317
 H         -2.5795794910        4.1363859894        0.6016357229
 C         -3.7681607308        2.5792138185        1.4971948515
 H         -4.8257634408        2.6142414485        1.2352656914
 H         -3.6436740111        3.2254963978        2.3687159220
 C         -3.3948122806        1.1583401982        1.9445373804
 H         -4.2621160406        0.7003079676        2.4323557799
 H         -2.6040537108        1.2125114977        2.6995429005
 H         -4.6170856602        2.2152481217       -2.5965644189
 H         -2.9768766202        1.7097729516       -2.1960990591
 H         -4.9789539500        0.1234899708       -1.6615047907
 H         -5.2106088104        1.1332887896       -0.2238949999
 O         -2.8400640199       -0.8406389892       -1.2176575612
 C         -1.7430086198       -1.6301918092       -0.9097825517
 O         -1.3536173096       -2.3409238484       -1.8549747322
 O         -1.1836442604       -0.4403103819        2.4548639793
 C          0.0225566101       -2.3371264603        0.7592104079
 C          1.1014056102       -2.1202084893       -0.2739238117
 C          1.9099222204       -3.1226665887       -0.7921425825
 C          2.8928957305       -2.8146811778       -1.7182038321
 C          3.1031194903       -1.5125417274       -2.1337234110
 C          2.2946411601       -0.5022412580       -1.6235294903
 C          1.3115768800       -0.8161993589       -0.7021098407
 H          0.6671871598       -0.0326736093       -0.3361960701
 N          2.4505753999        0.8316106324       -2.0221736492
 S          2.0136164296        2.0793649115       -1.0047253882
 O          0.5785885495        2.1981717112       -0.9324188483
 O          2.7135469294        3.2289903221       -1.5384192272
 C          2.6988223694        1.6461308703        0.5851307315
 C          1.8758625793        1.4018100893        1.6648122312
 C          2.4450034693        1.0247684984        2.8710992610
 C          3.8212678393        0.9026752785        2.9778947911
 C          4.6372084294        1.1634561996        1.8870233114
 C          4.0730517695        1.5365190605        0.6785938516
 H          4.6757183895        1.7548952913       -0.1878910981
 H          5.7078353994        1.0724953997        1.9744514615
 H          4.2588170792        0.6038071078        3.9173289809
 H          1.8014651792        0.8181648176        3.7115274108
 H          0.8062459993        1.4938934992        1.5547210712
 H          3.2681177500        1.0358946130       -2.5757747189
 H          3.8696508904       -1.2791021167       -2.8563919307
 H          3.5087905807       -3.6039254973       -2.1218747227
 H          1.7600691406       -4.1461375690       -0.4903949133
 H          0.3673107699       -1.8537604610        1.6903358684
 C         -0.2169782197       -3.7993492906        1.1030964467
 C         -1.5844640996       -4.3030987911        1.4535054461
 C         -0.9295806194       -4.7389163500        0.1787526458
 H         -0.5737154592       -5.7566496799        0.1096915951
 H         -1.2970511394       -4.3367606593       -0.7517166339
 H         -1.6784341296       -5.0167360618        2.2584484555
 H         -2.4068289098       -3.6048192712        1.3892419466
 H          0.6029546403       -4.2186064209        1.6781253265
