  62
        -98.94520394
 C          2.2604194510        0.7419671081       -0.0231042776
 C          3.2552992904        0.6548312652        0.9838184351
 C          4.1165889152       -0.5308492491        0.9377417101
 C          3.9016508399       -1.4742201478        0.0029468760
 C          4.6734330863       -2.7562038043       -0.1548783195
 C          5.9760704418       -2.6073424401       -0.9531695906
 C          7.1088770543       -1.8858072929       -0.2218831336
 H          7.2616010345       -2.3478368939        0.7539058680
 H          8.0183772922       -2.0460499393       -0.8042336512
 C          6.8917730288       -0.3757973549       -0.0511026205
 H          6.1138896744       -0.0396816012       -0.7405361489
 H          7.8076329109        0.1561381177       -0.3181547655
 C          6.5151751623        0.0542618276        1.3666534633
 H          6.3492792314        1.1344554631        1.3641756205
 H          7.3434282880       -0.1578984351        2.0462204927
 C          5.2498419691       -0.6181808391        1.9151086504
 H          5.4551873119       -1.6583459599        2.1669552189
 H          4.9463985226       -0.0908760333        2.8227306437
 H          6.3183935938       -3.6133091386       -1.2067603152
 H          5.7550459331       -2.0865915777       -1.8877789475
 H          4.8930372776       -3.1747183608        0.8277958405
 H          4.0185954356       -3.4484678451       -0.6887415671
 O          2.9118158380       -1.3732010035       -0.9230611453
 C          2.0793402068       -0.2634267024       -0.9728505881
 O          1.2440710371       -0.3029550684       -1.8978251373
 O          3.4140433601        1.5274487305        1.8777616948
 C          1.3469560327        1.9573342278       -0.0167513257
 C         -0.0333907551        1.5035078077        0.3877009587
 C         -0.3248918957        1.3342893063        1.7386845319
 C         -1.5564939411        0.8525577684        2.1396032256
 C         -2.5200437202        0.5190895659        1.2030488527
 C         -2.2318797365        0.6664650301       -0.1464104289
 C         -1.0024296144        1.1737977239       -0.5465711012
 H         -0.7882819328        1.2705341142       -1.5990711461
 N         -3.1975568592        0.3180463339       -1.1066852958
 S         -3.9886789179       -1.1527664934       -0.9380696785
 O         -3.1810302868       -2.1251571055       -0.2382909600
 O         -4.4149438484       -1.5094635528       -2.2740434672
 C         -5.4265340390       -0.7403737262        0.0308053950
 C         -6.2285970846        0.2969950271       -0.4034542635
 C         -7.3550571372        0.6257978458        0.3333725869
 C         -7.6614301489       -0.0862159499        1.4835576448
 C         -6.8487327122       -1.1276019449        1.9042195828
 C         -5.7194484668       -1.4606641978        1.1721786016
 H         -5.0548786414       -2.2583823339        1.4642611182
 H         -7.0882826631       -1.6807059032        2.7981899382
 H         -8.5386604559        0.1718216282        2.0555270254
 H         -7.9892518604        1.4351759969        0.0094438458
 H         -5.9569978970        0.8229442657       -1.3032983005
 H         -2.8754505539        0.4384447366       -2.0566368178
 H         -3.4780358551        0.1303655213        1.5073578015
 H         -1.7696405389        0.7309763159        3.1907687820
 H          0.4354023546        1.5724359688        2.4694234872
 H          1.7381052881        2.6074945480        0.7773155243
 C          1.3872374450        2.7128602911       -1.3282249870
 C          0.8332059479        4.1040921153       -1.3883446136
 C          2.3127872398        3.8823290241       -1.4705014236
 H          2.8067635522        4.0346157793       -2.4185187305
 H          2.9182517044        4.1469370373       -0.6160928543
 H          0.3089761621        4.4127385832       -2.2797943107
 H          0.4324719496        4.5180700179       -0.4756309820
 H          1.2608030505        2.0772577076       -2.1962335612
