  62
        -98.93743845
 C         -2.1013054126       -0.8297083094        0.5045650939
 C         -2.0590637546       -0.0518661708       -0.6747288016
 C         -2.1306285011        1.4126622840       -0.5086980820
 C         -2.2227853392        1.9205600560        0.7340459614
 C         -2.3375937489        3.3656726421        1.1406104156
 C         -3.7391349792        3.9471482831        0.8883565363
 C         -4.3690837151        3.5588539176       -0.4469071740
 H         -4.4105733499        2.4705354521       -0.5192412928
 H         -5.3992110783        3.9245857313       -0.4464526739
 C         -3.6735414344        4.1234026933       -1.6829571477
 H         -4.2648493815        3.8268142495       -2.5528346405
 H         -3.6812993063        5.2144133412       -1.6310485719
 C         -2.2330559899        3.6602698136       -1.9072981083
 H         -1.9498052159        3.9545775776       -2.9222246147
 H         -1.5477506164        4.1702592282       -1.2355841279
 C         -2.0248033642        2.1514402882       -1.8207098822
 H         -2.7198839088        1.6515789686       -2.5050646429
 H         -1.0224493764        1.9155699032       -2.1999897005
 H         -3.6796519618        5.0340834671        0.9640443354
 H         -4.3981539993        3.5884649012        1.6826805016
 H         -2.1304543980        3.4061133845        2.2125110416
 H         -1.5728368966        3.9499888475        0.6370393532
 O         -2.2702818340        1.1288829631        1.8453149645
 C         -2.1822408949       -0.2464673156        1.7658685011
 O         -2.1942177453       -0.8325960624        2.8704752955
 H          0.3622353057       -0.9980394963        0.5489563519
 C          0.4500987245       -1.8729619244       -0.0790268529
 C         -0.6536788626       -2.6949304942       -0.2659181415
 C         -0.5079696258       -3.8278884198       -1.0564187593
 C          0.7094159370       -4.1135597620       -1.6510922342
 C          1.7966601659       -3.2766123017       -1.4848359316
 C          1.6588790844       -2.1356056305       -0.6998473681
 N          2.7249586813       -1.2307615697       -0.5697192403
 S          2.6823917604        0.0356565313        0.5309410716
 O          2.5861637468       -0.4640028825        1.8868807632
 O          1.6772635782        0.9840373148        0.1203814616
 C          4.3042732286        0.7220782559        0.2528413797
 C          4.4896865402        1.5551247411       -0.8343328317
 C          5.7523519620        2.0726941538       -1.0750658823
 C          6.8036410426        1.7502207864       -0.2295392400
 C          6.6022267318        0.9153690196        0.8591670599
 C          5.3415834215        0.3936869303        1.1047956184
 H          5.1347836854       -0.2509948646        1.9438619677
 H          7.4200702364        0.6695534781        1.5170581222
 H          7.7852072715        2.1550407563       -0.4187034241
 H          5.9111132368        2.7247583416       -1.9187412055
 H          3.6399255709        1.7841181471       -1.4563892275
 H          3.6395416500       -1.6488449347       -0.6586123156
 H          2.7394235804       -3.4924617486       -1.9628180947
 H          0.8101235066       -4.9993876091       -2.2596695057
 H         -1.3483274614       -4.4856755154       -1.2079607425
 C         -1.9502662509       -2.3362312859        0.4228784663
 H         -1.8931799293       -2.6923952717        1.4633673333
 C         -3.1639374336       -2.9566167525       -0.2406969425
 C         -3.6618809837       -4.3035886426        0.1872857025
 C         -4.4346165749       -3.0708818039        0.5449970306
 H         -5.3711760499       -2.8810800515        0.0427488142
 H         -4.4115468097       -2.7294287279        1.5701241592
 H         -4.0731595092       -4.9628345000       -0.5622702339
 H         -3.1258667454       -4.8083773696        0.9769639860
 H         -3.2436822967       -2.6865095444       -1.2873769403
 O         -1.9665995477       -0.5540025561       -1.8265859418
