  62
        -98.93936709
 C          2.3543042136       -1.2622245132        0.0930195407
 C          3.3076523112       -0.7666662717       -0.8320743554
 C          4.1765006902        0.3320613181       -0.3785307173
 C          4.0149310495        0.8280706935        0.8621603756
 C          4.7627121340        1.9116660662        1.6106911786
 C          5.7068003546        2.8590224204        0.8752872781
 C          5.0184532096        3.8276051743       -0.0860668077
 H          4.4462771422        4.5507014886        0.5008530859
 H          5.7904845579        4.3766523287       -0.6294175124
 C          4.0602381152        3.1924650273       -1.0908045839
 H          3.6341905032        3.9951073743       -1.6990793152
 H          3.2299984036        2.7206220589       -0.5602281320
 C          4.6877587936        2.1738145120       -2.0402456350
 H          3.9354261890        1.9193526645       -2.7916170827
 H          5.5365973829        2.6268725497       -2.5559650160
 C          5.1536637281        0.8605087393       -1.3889990963
 H          5.2229474012        0.1015199726       -2.1735744718
 H          6.1418946569        0.9664540050       -0.9482531669
 H          6.4802030732        2.2956030216        0.3617592636
 H          6.2068376929        3.4565735547        1.6423499125
 H          3.9962858568        2.4986659603        2.1272641411
 H          5.3306299288        1.3935561975        2.3914406481
 O          3.0775400499        0.3246683401        1.7164598279
 C          2.2266821766       -0.7108408135        1.3661257927
 O          1.4351090087       -1.0300258410        2.2762635818
 H         -0.5722102909       -1.7412268451        1.3294486074
 C         -0.8287455429       -1.5384504940        0.3009151178
 C          0.0878259883       -1.8214079127       -0.7015446416
 C         -0.2451632716       -1.5066146108       -2.0149095945
 C         -1.4658480331       -0.9287296824       -2.3140524552
 C         -2.3750516179       -0.6443788429       -1.3104687959
 C         -2.0444245075       -0.9391608860        0.0053043870
 N         -2.9525188965       -0.6272579714        1.0364304202
 S         -3.4662312175        0.9722695615        1.1232533583
 O         -2.4870682510        1.8770875815        0.5646610826
 O         -3.8272957842        1.1860144746        2.5079555749
 C         -4.9479526283        0.9886491922        0.1341635381
 C         -5.9716477772        0.1296213180        0.4835563122
 C         -7.1324333721        0.1291841313       -0.2731688945
 C         -7.2504447118        0.9845538809       -1.3586939638
 C         -6.2155294451        1.8441102953       -1.6938931805
 C         -5.0511642612        1.8489589705       -0.9413272385
 H         -4.2177530466        2.4952513099       -1.1669585016
 H         -6.3091655783        2.5089919305       -2.5374671735
 H         -8.1544411550        0.9816729167       -1.9469801398
 H         -7.9396400095       -0.5372099121       -0.0151671820
 H         -5.8399551608       -0.5150430221        1.3363572923
 H         -2.6274392661       -0.9286539790        1.9449600935
 H         -3.3246231097       -0.1864445446       -1.5345761458
 H         -1.7111898850       -0.6933350570       -3.3384581678
 H          0.4730033570       -1.7024905318       -2.7982659691
 C          1.4485364160       -2.3893440169       -0.3782564175
 H          1.8966124508       -2.7423000759       -1.3165629932
 C          1.3880191592       -3.5498042097        0.5934121963
 C          0.8629187953       -4.8692057807        0.1147654476
 C          2.3228082860       -4.7061843830        0.4105215809
 H          2.7293476924       -5.1823215655        1.2901927555
 H          3.0113007901       -4.6658928725       -0.4208112124
 H          0.5602411478       -4.9382839072       -0.9190502459
 H          0.2638063539       -5.4606990460        0.7898149570
 H          1.1638301834       -3.2551839521        1.6104245573
 O          3.4387551744       -1.2354734772       -1.9938398800
