  62
        -98.94576250
 C         -2.5018188814       -0.0525753413       -0.5643690728
 C         -2.4641037880       -0.8394433677        0.6117540661
 C         -1.9834333080       -2.2158867000        0.4447978361
 C         -1.5547170810       -2.6327065452       -0.7597029106
 C         -1.0072398296       -3.9967580816       -1.0819416149
 C          0.4736522262       -4.1665712804       -0.7148949839
 C          0.7605825432       -4.3357206642        0.7780823184
 H          0.1004742680       -5.0993538795        1.1916358197
 H          1.7840369144       -4.7062223727        0.8649164986
 C          0.6374822926       -3.0426510963        1.5957748339
 H          1.4849749719       -2.9683194904        2.2821348061
 H          0.6912295954       -2.1807399290        0.9271040789
 C         -0.6305369323       -2.9374728356        2.4428736686
 H         -0.6096577452       -3.6943493193        3.2312341704
 H         -0.6413293226       -1.9528430845        2.9172319484
 C         -1.9377074680       -3.0961336932        1.6582078655
 H         -2.7624325212       -2.7970460304        2.3105025324
 H         -2.0789284243       -4.1381737332        1.3709982906
 H          0.8392218241       -5.0535800685       -1.2381966782
 H          1.0252707835       -3.3015292377       -1.0926057685
 H         -1.6007435705       -4.7613050598       -0.5789486857
 H         -1.1139082819       -4.1269273269       -2.1611368738
 O         -1.5898977611       -1.8400429267       -1.8647851560
 C         -2.0473702075       -0.5362309622       -1.7910971845
 O         -2.0184708546        0.0806518815       -2.8782692933
 O         -2.8225709574       -0.4248504122        1.7454749028
 C         -2.9004725930        1.4140563679       -0.4930091655
 C         -1.8502998514        2.1073907628        0.3418860629
 C         -2.1086960950        2.7913443915        1.5211655110
 C         -1.0620304643        3.2932758171        2.2772770626
 C          0.2512108284        3.1056282866        1.8886859644
 C          0.5173988356        2.4424575966        0.6944271836
 C         -0.5319290287        1.9801805258       -0.0796808682
 H         -0.3174974959        1.4699721725       -1.0090287911
 N          1.8343207878        2.2364732371        0.2520029264
 S          2.1546321005        0.8496468807       -0.6610636535
 O          1.9773745536        1.1755885058       -2.0552984075
 O          1.4059360339       -0.2777230492       -0.1582533476
 C          3.8916536583        0.6310851545       -0.3207508368
 C          4.2890157081       -0.3391610817        0.5792018031
 C          5.6397122319       -0.4836245392        0.8560865923
 C          6.5638409711        0.3424642949        0.2344881026
 C          6.1496610993        1.3118167420       -0.6673751312
 C          4.8012341451        1.4603529189       -0.9501505680
 H          4.4323122581        2.1907900311       -1.6512403132
 H          6.8712035750        1.9501343830       -1.1511125217
 H          7.6140083108        0.2279485146        0.4517037624
 H          5.9641350905       -1.2389868816        1.5534408858
 H          3.5333654911       -0.9612786580        1.0319896226
 H          2.5261061614        2.3895224506        0.9726500180
 H          1.0646971554        3.4661200405        2.4996080452
 H         -1.2734258977        3.8161758264        3.1977455362
 H         -3.1244119196        2.9120990864        1.8596931134
 H         -2.8331621520        1.7983503064       -1.5213128273
 C         -4.3151675967        1.5914561266        0.0106218763
 C         -5.0659316033        2.8482480488       -0.3092006722
 C         -5.4455948766        1.5590583354       -0.9717878484
 H         -6.3674676036        1.0790392732       -0.6799128582
 H         -5.1939511239        1.4235543154       -2.0139055863
 H         -5.7317866657        3.2556938050        0.4361654167
 H         -4.5596644722        3.5930887426       -0.9045700043
 H         -4.4781434503        1.1259582257        0.9750109221
