  62
        -98.94359995
 C         -2.0323063984       -1.3624080425       -0.2106276971
 C         -1.8960004578       -0.0219285915       -0.6453207229
 C         -3.1438822317        0.7515294380       -0.7258070380
 C         -4.3092715743        0.1613566592       -0.4034783413
 C         -5.6411629955        0.8525131971       -0.3780224000
 C         -5.9330473548        1.4410262186        1.0096836148
 C         -4.7827374566        2.2663000819        1.5870298711
 H         -5.1136195845        2.6527427649        2.5535816780
 H         -3.9321381736        1.6082329920        1.7796771382
 C         -4.3284171351        3.4328367768        0.6985304131
 H         -4.1984149801        4.3186764114        1.3238762918
 H         -5.1035142764        3.6642929081       -0.0330575911
 C         -3.0011230387        3.1994012467       -0.0255137837
 H         -2.6710337275        4.1538744857       -0.4442626314
 H         -2.2431441981        2.8780196510        0.6937041053
 C         -3.0405193658        2.1824613661       -1.1730256480
 H         -3.8522185155        2.4329143321       -1.8588428393
 H         -2.0949193116        2.2580657464       -1.7174111968
 H         -6.8287493813        2.0610124948        0.9405724159
 H         -6.1423262826        0.6183605223        1.6975821384
 H         -6.4138360164        0.1215389927       -0.6221965438
 H         -5.6512213357        1.6410976253       -1.1278618198
 O         -4.4008198385       -1.1346420596       -0.0084157212
 C         -3.2678928544       -1.9244402569        0.1070965235
 O         -3.4876497082       -3.0889706452        0.4988752118
 O         -0.7944315141        0.5026291478       -0.9471873796
 C         -0.8009661647       -2.2400040555       -0.0846522692
 C          0.2115730641       -1.6027824241        0.8361103357
 C         -0.2218652897       -1.0168874312        2.0223854033
 C          0.6737204830       -0.4196106716        2.8886466952
 C          2.0275352068       -0.4057793683        2.6010752229
 C          2.4734606312       -0.9980853080        1.4278180978
 C          1.5694378634       -1.5930583634        0.5548614192
 H          1.9350878895       -2.0472538387       -0.3531085302
 N          3.8544058048       -1.0033522184        1.1409162457
 S          4.6274293354        0.4604292150        0.8868416285
 O          6.0117299658        0.1280115560        0.6390136359
 O          4.3672474566        1.3297674801        2.0049760328
 C          3.8940061121        1.1155170608       -0.6013939500
 C          2.5844565088        1.5512561886       -0.5620622928
 C          1.9886524624        1.9876152646       -1.7344573459
 C          2.7119941237        1.9890140272       -2.9171789409
 C          4.0296416140        1.5563939426       -2.9388519400
 C          4.6262129796        1.1057597336       -1.7725604690
 H          5.6439053901        0.7508989285       -1.7436427610
 H          4.5889677763        1.5613573216       -3.8607650986
 H          2.2427268480        2.3271289190       -3.8279070819
 H          0.9546019489        2.2904850442       -1.7138898322
 H          2.0398107957        1.5379686448        0.3680158841
 H          4.1049444542       -1.6381893910        0.3953028581
 H          2.7379259414        0.0693192862        3.2573875418
 H          0.3166122502        0.0365261031        3.8000124598
 H         -1.2785285686       -1.0297503707        2.2546096194
 H         -1.1407134908       -3.1772488225        0.3806396793
 C         -0.2506024692       -2.5518856263       -1.4618854218
 C          0.4447000651       -3.8529445757       -1.7264734102
 C         -0.9245410283       -3.6075918963       -2.2837538128
 H         -1.0301059002       -3.4467456137       -3.3460667044
 H         -1.7617692716       -4.1230509047       -1.8355704885
 H          1.2789985112       -3.8634952666       -2.4120798822
 H          0.5384818233       -4.5479792654       -0.9055262709
 H          0.1026350490       -1.6658382119       -1.9774541062
