  62
        -98.94298765
 C          2.4634703889        1.0741986195        0.0469966612
 C          3.5278423788        0.6818276491        0.9009110412
 C          4.6027553189       -0.0985964906        0.2810752011
 C          4.5386186592       -0.3957394100       -1.0293549191
 C          5.5674458193       -1.1615716496       -1.8160558592
 C          5.4303395794       -2.6866167897       -1.7097450399
 C          5.8487423792       -3.2860349602       -0.3665474101
 H          5.9128926492       -4.3671420302       -0.5047834106
 H          6.8467834191       -2.9316690603       -0.1069862398
 C          4.8792827290       -2.9929473908        0.7870813599
 H          3.9191150690       -2.6645262406        0.3822313498
 H          4.6920200789       -3.9115135110        1.3476367394
 C          5.3784002688       -1.9476398212        1.7845613004
 H          6.2669706487       -2.3237661214        2.2963548004
 H          4.5988309286       -1.7897429715        2.5340555503
 C          5.7152467688       -0.5883602109        1.1581464910
 H          6.6440234689       -0.6544428106        0.5918825612
 H          5.8466040787        0.1377473288        1.9640831914
 H          6.0577406695       -3.1241772793       -2.4897239900
 H          4.3946141094       -2.9600246596       -1.9241198102
 H          5.4341502695       -0.8758998992       -2.8617466991
 H          6.5669180593       -0.8621784397       -1.4990454189
 O          3.5054476593        0.0021782203       -1.8164483591
 C          2.4414570392        0.7324654500       -1.3049567490
 O          1.5744000393        1.0089210804       -2.1578855690
 O          3.5802474186        0.9816740286        2.1228069513
 C          1.3417401988        1.8904240991        0.6679251814
 C          0.0989901888        1.0476048190        0.8238233908
 C         -0.1749700014        0.4293910585        2.0396358405
 C         -1.3106771514       -0.3438809416        2.1996872700
 C         -2.1953543712       -0.5199665112        1.1502650097
 C         -1.9254887210        0.0836725193       -0.0704117300
 C         -0.7901567410        0.8658620594       -0.2256342994
 H         -0.5818709109        1.3156375299       -1.1844589292
 N         -2.8173187908       -0.1060704902       -1.1479981202
 S         -4.3596445309        0.5376630796       -0.9486714102
 O         -4.8708006107        0.7399528502       -2.2867807802
 O         -4.3365952211        1.6985879893       -0.0876233497
 C         -5.2734846710       -0.7756850007       -0.1682366609
 C         -5.7719860912       -0.6014083413        1.1079630191
 C         -6.4814666712       -1.6364747616        1.6969224186
 C         -6.6791231411       -2.8203317813        1.0026602480
 C         -6.1744700509       -2.9781677507       -0.2797487720
 C         -5.4650253208       -1.9470491104       -0.8745938914
 H         -5.0622635306       -2.0245072000       -1.8708143414
 H         -6.3318014707       -3.8996788805       -0.8168050124
 H         -7.2309453511       -3.6245400015        1.4632405676
 H         -6.8756403214       -1.5153930420        2.6931385685
 H         -5.5899773713        0.3355965785        1.6093634595
 H         -2.4324618407        0.2090847002       -2.0280099700
 H         -3.0804296512       -1.1242472213        1.2656832893
 H         -1.5098863115       -0.8139743920        3.1505940297
 H          0.5184508085        0.5578375882        2.8587297807
 H          1.7006668286        2.1425620087        1.6750029515
 C          1.0748601289        3.1803582295       -0.0821962481
 C          0.2633537087        4.2506579791        0.5821134822
 C          1.7344842588        4.4456541893        0.3735518425
 H          2.0610177989        5.1536065396       -0.3734277371
 H          2.3836115186        4.3891643889        1.2350165926
 H         -0.4260902412        4.8238238894       -0.0190100477
 H         -0.0871546014        4.0584181087        1.5849987821
 H          0.9537432491        3.0461816199       -1.1497444982
