  62
        -98.94072802
 C         -2.0035064608       -1.3165645580        0.3756803778
 C         -2.5035944186       -0.6309026444       -0.7593111956
 C         -3.7371412235        0.1445215007       -0.5465289930
 C         -4.2956338921        0.1844306058        0.6759381872
 C         -5.5202319932        0.9729565172        1.0374279087
 C         -5.1505212246        2.3782054730        1.5323921174
 C         -4.1711874095        3.1171875560        0.6200409524
 H         -4.0076393318        4.1069859958        1.0520677381
 H         -3.2089802436        2.5994027438        0.6329199861
 C         -4.6446926003        3.2657884831       -0.8326383744
 H         -4.4521073056        4.2896573390       -1.1600468039
 H         -5.7219417997        3.1049986311       -0.8892612231
 C         -3.9411396944        2.3407364517       -1.8276634983
 H         -2.8577827236        2.4301674377       -1.7102743653
 H         -4.1879918079        2.6783722648       -2.8377867020
 C         -4.3146873079        0.8557730679       -1.7376782823
 H         -5.4009495211        0.7472138189       -1.7632372023
 H         -3.8973249242        0.3567232559       -2.6171944249
 H         -4.6955500318        2.2887217894        2.5216838950
 H         -6.0675505289        2.9616264574        1.6322752705
 H         -6.0473122619        0.4444224887        1.8336606286
 H         -6.1710086090        1.0420640817        0.1679945854
 O         -3.7668911548       -0.4566178653        1.7496198619
 C         -2.6050185603       -1.2024204054        1.6314061685
 O         -2.2079331993       -1.7017804228        2.7035823257
 O         -1.9630726395       -0.6563530726       -1.8939202455
 C         -0.7367965722       -2.1534992396        0.3084017140
 C          0.3401045663       -1.3947819530       -0.4278908487
 C          0.9554940661       -1.8503065190       -1.5854547791
 C          1.9304574882       -1.0884177788       -2.2064643498
 C          2.3188661970        0.1315630773       -1.6858029533
 C          1.7189064876        0.5903611231       -0.5193749058
 C          0.7456890807       -0.1754300570        0.1027855093
 H          0.2728615560        0.1863779860        1.0084496424
 N          2.1201902224        1.8211423383        0.0279183188
 S          3.7606500434        2.1423734265        0.1061078914
 O          3.9176367811        3.0379023186        1.2311152598
 O          4.2190109124        2.6457432873       -1.1646893297
 C          4.5324825532        0.5691418125        0.4442160097
 C          5.4405186336        0.0404389426       -0.4501684861
 C          6.0029842241       -1.1973223385       -0.1817631606
 C          5.6460558597       -1.8829122552        0.9686607800
 C          4.7351907060       -1.3364487946        1.8600860083
 C          4.1717941764       -0.0984732301        1.5979744843
 H          3.4644408315        0.3549115350        2.2741114441
 H          4.4586249921       -1.8706945849        2.7549538388
 H          6.0797654123       -2.8487073922        1.1744305640
 H          6.7132457539       -1.6234933589       -0.8717027638
 H          5.6867158953        0.6059514525       -1.3340576386
 H          1.6557276482        2.0605950851        0.8910082582
 H          3.0626120615        0.7439183503       -2.1694102990
 H          2.3898468904       -1.4471926118       -3.1147263146
 H          0.6510051210       -2.7878667285       -2.0197246754
 H         -0.4131952809       -2.2570483614        1.3574467774
 C         -0.9476835621       -3.5660409740       -0.2158653245
 C         -2.2597505232       -4.2675500002       -0.0336985808
 C         -1.8088462646       -3.8658169224       -1.4043212926
 H         -1.4895037626       -4.6422728249       -2.0841933193
 H         -2.3003486076       -3.0373381059       -1.8884867016
 H         -2.2493133774       -5.3150083232        0.2279193019
 H         -3.0654254384       -3.7122407053        0.4247925958
 H         -0.0586723090       -4.1768691117       -0.0928576445
