  62
        -98.93877394
 C         -2.4025655366       -1.1825109101       -0.0457286956
 C         -2.9408868635       -0.2286801069        0.8489217469
 C         -3.4737604425        1.0070961775        0.2545108790
 C         -3.4057320860        1.1786409581       -1.0770299958
 C         -3.9276220920        2.3258595834       -1.9059555641
 C         -3.7043586715        3.7475123778       -1.3747255707
 C         -2.3906086220        3.9535141650       -0.6064635635
 H         -1.7295082314        3.0953389337       -0.7477144904
 H         -1.8733857690        4.8251071016       -1.0124639266
 C         -2.6043065839        4.1928743788        0.8900663113
 H         -3.4386630742        4.8857888966        1.0195035231
 H         -1.7107721152        4.6733685018        1.2967393252
 C         -2.8609177612        2.9390189462        1.7245581851
 H         -1.9464294798        2.3396538766        1.7714801236
 H         -3.0884091594        3.2549619977        2.7456624162
 C         -3.9951967419        2.0283458209        1.2243292513
 H         -4.3772666969        1.4655865384        2.0803997733
 H         -4.8089561833        2.6107242301        0.7999142593
 H         -3.7272036114        4.4131475330       -2.2391609163
 H         -4.5377104605        4.0346531208       -0.7350730238
 H         -4.9984325489        2.1682830235       -2.0654248814
 H         -3.4374262283        2.2181545644       -2.8765471028
 O         -2.8491237204        0.2466668760       -1.9002407181
 C         -2.3084774100       -0.9333573795       -1.4144148789
 O         -1.7974841553       -1.6576409522       -2.2885466682
 O         -2.9794243108       -0.4033052242        2.0982404470
 C         -1.8017163933       -2.4577485718        0.5243488085
 C         -0.3023763059       -2.3531078301        0.3922779814
 C          0.4770514494       -3.2056980521       -0.3765522369
 C          1.8387099659       -2.9848385632       -0.5021642281
 C          2.4483401738       -1.9164028754        0.1299995991
 C          1.6769358140       -1.0628624254        0.9082735839
 C          0.3190759528       -1.2912960178        1.0403111278
 H         -0.2818273260       -0.6190229404        1.6412245451
 N          2.2891807931        0.0497954146        1.5358401311
 S          2.6998273203        1.2816432434        0.4586958168
 O          2.7934904389        2.4820811747        1.2615415715
 O          1.7847247393        1.3294172585       -0.6605016629
 C          4.3250057006        0.8086546157       -0.0881382453
 C          5.3428242065        0.7901362378        0.8457608089
 C          6.6119248040        0.4062658592        0.4434498692
 C          6.8395506203        0.0504136221       -0.8778994358
 C          5.8070229857        0.0761911614       -1.8031085934
 C          4.5344553607        0.4585033436       -1.4071469057
 H          3.6983699991        0.4866765497       -2.0878259672
 H          5.9854055196       -0.2018600638       -2.8293874677
 H          7.8276890332       -0.2496728181       -1.1890841079
 H          7.4173588585        0.3840679712        1.1596296001
 H          5.1202133133        1.0784207654        1.8595067914
 H          1.7099130259        0.4447666573        2.2650414148
 H          3.5065773714       -1.7385256606        0.0286683230
 H          2.4321192082       -3.6520110532       -1.1083652537
 H          0.0158324700       -4.0321759336       -0.8913171677
 H         -2.0503718906       -2.4420799699        1.5955130810
 C         -2.3990095450       -3.6983043769       -0.0998209564
 C         -2.3036961324       -5.0086923463        0.6213929567
 C         -3.6224684513       -4.3054481125        0.5163049853
 H         -4.3774723863       -4.7157757404       -0.1371845213
 H         -4.0227528017       -3.8316737502        1.4008383472
 H         -2.1542768164       -5.9065996751        0.0416309158
 H         -1.8074896804       -5.0145744399        1.5800176002
 H         -2.3321339358       -3.7011798935       -1.1810309020
