  62
        -98.94575687
 C         -2.5017105548       -0.0299878787       -0.5689262007
 C         -2.4803226719       -0.8183126689        0.6065884047
 C         -2.0205127866       -2.2018838034        0.4399345813
 C         -1.5928638984       -2.6238219795       -0.7631490486
 C         -1.0636122259       -3.9952880883       -1.0842257450
 C          0.4129501492       -4.1861353892       -0.7100431784
 C          0.6903411621       -4.3606641782        0.7841153477
 H          0.0174458119       -5.1151333071        1.1938349807
 H          1.7079453652       -4.7459022381        0.8753992845
 C          0.5821391566       -3.0668967660        1.6028407289
 H          1.4271802412       -3.0058222612        2.2934853200
 H          0.6524585078       -2.2048230513        0.9357783942
 C         -0.6884858030       -2.9444471624        2.4437418417
 H         -0.6821273009       -3.7021191256        3.2315717166
 H         -0.6877575063       -1.9601462687        2.9188629832
 C         -1.9937979634       -3.0840621503        1.6524475992
 H         -2.1482772821       -4.1236795916        1.3633560080
 H         -2.8175304127       -2.7740119557        2.3008550877
 H          0.7687372352       -5.0776117227       -1.2324638640
 H          0.9784911806       -3.3285354841       -1.0841042086
 H         -1.6703203871       -4.7518237154       -0.5849288104
 H         -1.1667522541       -4.1229272970       -2.1640567754
 O         -1.6110928540       -1.8294830646       -1.8674805383
 C         -2.0502375133       -0.5192280888       -1.7945148286
 O         -2.0087602464        0.0978663329       -2.8810920507
 O         -2.8359510622       -0.3990652864        1.7394702567
 C         -2.8809204663        1.4416623930       -0.4976639670
 C         -1.8263139600        2.1218727872        0.3424676019
 C         -2.0830619768        2.8138039187        1.5174207590
 C         -1.0346685406        3.3056406920        2.2777650105
 C          0.2783139140        3.1013242825        1.8969090463
 C          0.5432850288        2.4302464878        0.7067733806
 C         -0.5071295434        1.9757959509       -0.0704564113
 H         -0.2939107099        1.4583134112       -0.9959949431
 N          1.8607306949        2.2105226712        0.2719843511
 S          2.1726209973        0.8244283196       -0.6444169462
 O          1.9852011902        1.1508156044       -2.0371766040
 O          1.4270606579       -0.3030596527       -0.1367031751
 C          3.9124011729        0.6063989505       -0.3182441006
 C          4.3213052935       -0.3787987237        0.5599252124
 C          5.6749169303       -0.5222240953        0.8230960499
 C          6.5902698586        0.3198696395        0.2101086440
 C          6.1644598787        1.3044641961       -0.6695852501
 C          4.8131929486        1.4517735084       -0.9389244876
 H          4.4353501793        2.1937936950       -1.6228774567
 H          6.8791590910        1.9554969866       -1.1464923237
 H          7.6426734110        0.2061252862        0.4166754939
 H          6.0084150755       -1.2891418728        1.5033521914
 H          3.5720739450       -1.0124710555        1.0073150613
 H          2.5490247962        2.3516980127        0.9984425956
 H          1.0927091870        3.4553271830        2.5103884195
 H         -1.2448813788        3.8345818381        3.1950414237
 H         -3.0991871306        2.9489067024        1.8492114655
 H         -2.8041091998        1.8261035127       -1.5252763383
 C         -4.2957100243        1.6360608793       -0.0004891811
 C         -5.0310565116        2.9006789843       -0.3251921542
 C         -5.4219269518        1.6149673267       -0.9880299023
 H         -6.3503801747        1.1454949173       -0.6998963589
 H         -5.1669317359        1.4753799918       -2.0288016718
 H         -5.6957720962        3.3162869137        0.4166808337
 H         -4.5139733647        3.6391786446       -0.9191449663
 H         -4.4682606788        1.1735282179        0.9636738115
