  62
        -98.94300446
 C          0.8983453844        1.7476620648        0.0688120188
 C          1.7721335671        1.1524479368        1.0105623550
 C          3.0004486350        0.5657007786        0.4618933023
 C          3.2034752419        0.5680846155       -0.8685351712
 C          4.4353423179        0.0747904669       -1.5794179351
 C          4.4864282376       -1.4425478017       -1.8011442304
 C          4.7719382604       -2.2725426505       -0.5494523378
 H          5.0157591895       -3.2827539919       -0.8836682136
 H          5.6532722550       -1.8764098349       -0.0442043715
 C          3.5971102905       -2.3490317861        0.4345876280
 H          2.6772796779       -2.0532145704       -0.0744100075
 H          3.4699192254       -3.3822760794        0.7627567949
 C          3.7578494569       -1.4965919960        1.6924353098
 H          4.5878894240       -1.8769460337        2.2922618191
 H          2.8447339795       -1.5833497319        2.2866896292
 C          4.0007783652       -0.0078648200        1.4207698083
 H          3.8971770630        0.5331197224        2.3649452887
 H          5.0121573901        0.1437691731        1.0427767038
 H          5.2788476730       -1.6357147846       -2.5278883569
 H          3.5417180963       -1.7636430582       -2.2450508662
 H          5.3217014395        0.3907961984       -1.0273686072
 H          4.4426453478        0.5659315633       -2.5548944043
 O          2.2981127752        1.0783774230       -1.7457391548
 C          1.1467694625        1.7149587519       -1.3029547286
 O          0.4472568777        2.1980151308       -2.2127921829
 O          1.5508585931        1.1379675190        2.2514984528
 C         -0.2972419680        2.5322984576        0.5773307785
 C         -1.5645552462        2.1820117348       -0.1598633065
 C         -2.3677575557        3.1369325654       -0.7705170989
 C         -3.5323959069        2.7665328695       -1.4181019105
 C         -3.9342850336        1.4453388268       -1.4441843533
 C         -3.1456981401        0.4812295563       -0.8257829416
 C         -1.9654176992        0.8509700006       -0.2009493941
 H         -1.3523853147        0.0956557831        0.2721389150
 N         -3.5387833000       -0.8658274105       -0.8391601551
 S         -3.3393142703       -1.8234553484        0.5162927280
 O         -4.3936860654       -2.8120664237        0.4196679579
 O         -3.3121745192       -1.0410078510        1.7289861330
 C         -1.7864688180       -2.6490955790        0.2577037981
 C         -0.8618456245       -2.7133752114        1.2799672340
 C          0.3042031222       -3.4360890795        1.0833440639
 C          0.5256653899       -4.0733715595       -0.1275469216
 C         -0.4086621119       -3.9902687138       -1.1486757730
 C         -1.5798676580       -3.2765941578       -0.9550431259
 H         -2.3353656435       -3.1998885181       -1.7190426894
 H         -0.2296811572       -4.4835648164       -2.0905268498
 H          1.4323858240       -4.6378839790       -0.2765322105
 H          1.0329303698       -3.4974309213        1.8757118353
 H         -1.0686371610       -2.1967091607        2.2043421169
 H         -4.4287663781       -1.0373056841       -1.2844169932
 H         -4.8490131335        1.1556700979       -1.9391113992
 H         -4.1400427263        3.5184902809       -1.8983422969
 H         -2.0800744852        4.1746783853       -0.7479460504
 H         -0.4234198131        2.2316650879        1.6285042947
 C          0.0373629503        4.0113147443        0.5373951654
 C         -0.6091982169        4.9625304729        1.4985354058
 C          0.8370919497        4.6044865993        1.6567679438
 H          1.5830911329        5.3481807322        1.4191613842
 H          1.1198288275        3.9458545724        2.4646533329
 H         -0.8552444673        5.9561591089        1.1554769738
 H         -1.3136855429        4.5531421724        2.2067090478
 H          0.2523311566        4.3624108035       -0.4665634228
