  62
        -98.93978598
 C         -1.7500114352        1.3232224684       -0.4661407693
 C         -1.5500338093        0.2371445050        0.4227929279
 C         -2.7640006641       -0.3051776298        1.0571448875
 C         -3.9619688771        0.2339351127        0.7716129368
 C         -5.2762502904       -0.2569481672        1.3040354818
 C         -5.8989765759       -1.3002467074        0.3659190203
 C         -4.9339896689       -2.4099776424       -0.0521349487
 H         -5.4908580144       -3.1036711419       -0.6858266469
 H         -4.1393185167       -1.9815455419       -0.6676574258
 C         -4.3057394953       -3.1796082271        1.1181224467
 H         -4.3417345970       -4.2479103054        0.8943769064
 H         -4.8908848821       -3.0187416041        2.0244013700
 C         -2.8411725734       -2.8329357862        1.3935041157
 H         -2.4392616128       -3.5786984999        2.0849942749
 H         -2.2634067296       -2.9065351804        0.4679162820
 C         -2.5860226204       -1.4525071239        2.0113609544
 H         -3.2153411728       -1.3224583039        2.8943784671
 H         -1.5387140648       -1.4239441307        2.3266514302
 H         -6.2462072068       -0.7915441334       -0.5363643892
 H         -6.7658188930       -1.7386855241        0.8635712788
 H         -5.1249219701       -0.6861008119        2.2925215635
 H         -5.9539656748        0.5944339974        1.3865002349
 O         -4.1160754963        1.2715215319       -0.0895361933
 C         -3.0262718115        1.8230546174       -0.7423381121
 O         -3.3196902699        2.7411201631       -1.5339850339
 H          1.8971452564        0.9609382555       -0.5959831503
 C          1.4725816560        0.5126536766       -1.4790989510
 C          0.2151701580        0.8985457330       -1.9187763806
 C         -0.3199503404        0.2811375298       -3.0462160242
 C          0.3905876545       -0.6865961997       -3.7290679989
 C          1.6479462057       -1.0629313302       -3.2915055412
 C          2.1847925690       -0.4681459042       -2.1570769212
 N          3.4680100531       -0.8308687464       -1.6947444646
 S          3.5604644994       -1.6210781388       -0.2075990479
 O          4.8224472791       -2.3332759921       -0.2672596649
 O          2.3928223714       -2.4373429703        0.0266263799
 C          3.7046511423       -0.3264059907        1.0023226354
 C          4.9210432409        0.3205391830        1.1072509927
 C          5.0741010239        1.3069949712        2.0672792163
 C          4.0159376452        1.6196361310        2.9079541072
 C          2.8025941304        0.9600615324        2.7877622054
 C          2.6374425286       -0.0222185296        1.8224816624
 H          1.6989691113       -0.5340018422        1.6785881751
 H          1.9781702844        1.2064147986        3.4381869874
 H          4.1357513074        2.3823858333        3.6615157057
 H          6.0150761140        1.8247288735        2.1615490779
 H          5.7210037969        0.0300057011        0.4467260277
 H          3.9893599659       -1.3746144726       -2.3698279613
 H          2.2094167293       -1.8200284525       -3.8193611266
 H         -0.0356835649       -1.1523435059       -4.6050522591
 H         -1.3058420948        0.5744618255       -3.3819923116
 C         -0.6030798029        1.9633796023       -1.2315783830
 H         -1.0941896731        2.5573684782       -2.0197766076
 C          0.2391090750        2.9403136267       -0.4256688580
 C         -0.4234804906        3.9092999096        0.5074776808
 C          0.4548714767        2.8247514666        1.0509366672
 H          1.4237156042        3.0974879468        1.4427651543
 H         -0.0067630376        1.9976694295        1.5650231059
 H         -0.0661896182        4.9275398401        0.5337095479
 H         -1.4922234525        3.8171571865        0.6381994476
 H          1.0699106389        3.3254604770       -1.0090364266
 O         -0.4274523334       -0.2591799828        0.6928561525
