  62
        -98.93637754
 C          1.6544988707        1.2486499206       -0.8138704399
 C          1.5434744005       -0.1344854694       -0.5218458199
 C          2.8173813704       -0.8669294095       -0.4094051096
 C          3.9780705005       -0.2262502396       -0.6293292693
 C          5.3403387404       -0.8438171097       -0.5061579590
 C          5.9055057701       -0.6640240398        0.9097109712
 C          4.9287936998       -1.0559556797        2.0186703209
 H          5.4460545196       -0.9167929798        2.9706525511
 H          4.0827851898       -0.3646136896        2.0095843207
 C          4.4072041697       -2.4967966696        1.9259650208
 H          5.0608614798       -3.0855855797        1.2813530710
 H          4.4440837794       -2.9454962997        2.9209879108
 C          2.9636081398       -2.6208369995        1.4339788105
 H          2.6315811696       -3.6459676495        1.6178611804
 H          2.3198889297       -1.9576299594        2.0175103003
 C          2.7376176101       -2.3250594695       -0.0541072396
 H          3.4369869702       -2.9084929595       -0.6559430094
 H          1.7197722802       -2.6368681494       -0.3053947998
 H          6.1730190802        0.3866208902        1.0451067012
 H          6.8161766000       -1.2596641099        0.9965704014
 H          5.2777199604       -1.9020212697       -0.7520753490
 H          6.0059610406       -0.3532350598       -1.2184209988
 O          4.0424907607        1.0920199104       -0.9488987893
 C          2.8946262908        1.8596293205       -1.0232775496
 O          3.1042856210        3.0621925805       -1.2867352395
 H         -1.6607429595        0.4657700010       -0.1824028007
 C         -1.3887148697        1.1798287609        0.5714304394
 C         -0.3687610195        2.0916998508        0.3514867397
 C         -0.0217199397        2.9513727108        1.3939129397
 C         -0.6743501200        2.9015444509        2.6103006296
 C         -1.7050630801        2.0010710910        2.8150572393
 C         -2.0580427299        1.1364943910        1.7877148893
 N         -3.0773821601        0.1904323811        1.9605774490
 S         -4.0911468098       -0.1792752388        0.6850641488
 O         -4.3446732795        0.9825367712       -0.1366051113
 O         -5.2567429900       -0.7696991187        1.3114736585
 C         -3.2461516197       -1.4335200689       -0.2516964110
 C         -3.3896768294       -1.4457816889       -1.6245927711
 C         -2.7611788693       -2.4416436189       -2.3547989609
 C         -2.0031029596       -3.4006411490       -1.7022599307
 C         -1.8709410099       -3.3740447390       -0.3227716007
 C         -2.5009469500       -2.3852327090        0.4139585991
 H         -2.4088012102       -2.3301703490        1.4857749992
 H         -1.2722837501       -4.1161789391        0.1805657294
 H         -1.5057083595       -4.1688083890       -2.2735746506
 H         -2.8569500391       -2.4578585389       -3.4287917109
 H         -3.9693980092       -0.6674782288       -2.0951378312
 H         -3.5663736803        0.2317114911        2.8422196789
 H         -2.2243586703        1.9622301910        3.7607355192
 H         -0.3853001601        3.5746510908        3.4034519897
 H          0.7822457204        3.6586691407        1.2411835099
 C          0.4447090708        2.1748548708       -0.9149111401
 H          0.8820845109        3.1849683607       -0.9307751300
 C         -0.2515612489        2.0277886208       -2.2640789203
 C         -0.9310557089        0.7861833509       -2.7557950805
 C         -1.7354509888        2.0210942210       -2.4807182607
 H         -2.1177911086        2.5735399110       -3.3271264208
 H         -2.3948189890        2.0326041410       -1.6263011908
 H         -0.7668088787        0.5006657109       -3.7854991004
 H         -1.0011242791       -0.0551830991       -2.0861181505
 H          0.3254726913        2.5550744408       -3.0207848102
 O          0.4601592604       -0.7484239792       -0.3599460301
