  62
        -98.94010912
 C          2.4528801277        0.9777612496        0.0288641959
 C          2.5443160250       -0.4194726453        0.2371066500
 C          3.8793498942       -0.9265149800        0.5874734476
 C          4.9040920551       -0.0622932366        0.7041592892
 C          6.3245424258       -0.4506070723        0.9937871847
 C          7.1076381238       -0.6946435695       -0.3039618691
 C          6.3930164699       -1.6156383299       -1.2929360766
 H          5.4855393158       -1.1220640398       -1.6484585010
 H          7.0505539923       -1.7386178691       -2.1562504026
 C          6.0292287789       -2.9952164372       -0.7265169376
 H          6.2945546291       -3.7572682487       -1.4622993823
 H          6.6155280801       -3.1935832114        0.1713288728
 C          4.5435732497       -3.1789516081       -0.4112948360
 H          3.9456306632       -2.8937450479       -1.2807114067
 H          4.3636210875       -4.2412096200       -0.2254988677
 C          4.0201042122       -2.4066693950        0.8062543783
 H          3.0120993225       -2.7722176340        1.0237103346
 H          4.6540253440       -2.6100959316        1.6716390602
 H          8.0795287805       -1.1190633398       -0.0459171675
 H          7.2753357073        0.2677101157       -0.7929359517
 H          6.7979738522        0.3629367691        1.5457839122
 H          6.3319793953       -1.3478617175        1.6094148464
 O          4.7700176491        1.2765715731        0.5213457185
 C          3.5479947531        1.8287465583        0.1750613949
 O          3.5635475409        3.0687318268        0.0359153731
 H         -1.3760159489        0.4426404401       -0.6802568958
 C         -1.1403329481        0.6820003767        0.3426405147
 C          0.0741766567        1.2603688393        0.6726459465
 C          0.3338537421        1.5518809300        2.0098453898
 C         -0.5970789911        1.2642541340        2.9884258877
 C         -1.8099298946        0.6870963011        2.6548584649
 C         -2.0772215239        0.3881634617        1.3243361776
 N         -3.2833055036       -0.2342644073        0.9657365309
 S         -3.9699924721        0.0760735760       -0.5419152512
 O         -3.2925925246       -0.7067097537       -1.5442727991
 O         -4.0324660017        1.5014102339       -0.7785475028
 C         -5.6062534858       -0.5810039451       -0.2754481044
 C         -6.6575394620        0.2780184587       -0.0178697692
 C         -7.9160552632       -0.2543464627        0.2154424285
 C         -8.0998720078       -1.6285106705        0.1904355605
 C         -7.0348439248       -2.4782999895       -0.0703810080
 C         -5.7746622727       -1.9527470947       -0.3062642485
 H         -4.9192732334       -2.5719686431       -0.5214190443
 H         -7.1820879730       -3.5460556538       -0.0916008293
 H         -9.0798615451       -2.0403041876        0.3728828605
 H         -8.7466570082        0.4031991337        0.4153293206
 H         -6.4682277401        1.3393792710       -0.0150147965
 H         -3.9734452479       -0.2114344082        1.7036838548
 H         -2.5375803497        0.4603054130        3.4192184052
 H         -0.3802398615        1.4954506320        4.0206484320
 H          1.2817119044        2.0052870415        2.2686796484
 C          1.1229607040        1.5987945609       -0.3586195752
 H          1.2775696498        2.6880329140       -0.3410320480
 C          0.7421650617        1.1870841925       -1.7650913375
 C         -0.1638113118        2.0569640066       -2.5818564159
 C          1.2908759876        1.9558479569       -2.9275757018
 H          1.5733302538        1.4137427651       -3.8175584870
 H          1.9293427169        2.7990599937       -2.7067737581
 H         -0.8872877947        1.5824845266       -3.2283539718
 H         -0.5189749306        2.9708852835       -2.1294562879
 H          0.6486318480        0.1121210215       -1.8759442941
 O          1.5657670103       -1.2048486450        0.1359981086
