  62
        -98.94142709
 C         -1.5725452085       -0.5944081642        0.9571186538
 C         -2.8120409912       -1.1000392892        0.4949471419
 C         -3.8975767597       -0.1157032525        0.3776078063
 C         -3.6790963477        1.1735682363        0.6903100296
 C         -4.6912042011        2.2855838789        0.6340688072
 C         -4.8622830363        2.9054390588       -0.7596133321
 C         -5.6006636068        2.0319595679       -1.7746836786
 H         -6.5440121176        1.6944419027       -1.3441512908
 H         -5.8420515497        2.6678847287       -2.6288121620
 C         -4.7974474723        0.8220395916       -2.2723541717
 H         -4.8820409322        0.7507669795       -3.3591171559
 H         -3.7389968695        0.9667678993       -2.0433169996
 C         -5.2486549851       -0.5192198306       -1.6944063443
 H         -6.2647941008       -0.7397794076       -2.0291768538
 H         -4.5889234279       -1.2989228917       -2.0832935967
 C         -5.2133443528       -0.5900142893       -0.1623581298
 H         -6.0307079997       -0.0062940104        0.2604364936
 H         -5.3379714374       -1.6341591496        0.1347891208
 H         -3.8754318256        3.1630561901       -1.1508475121
 H         -5.4239966658        3.8342351624       -0.6359254782
 H         -5.6548110602        1.9227284963        0.9928558333
 H         -4.3368169666        3.0624015952        1.3149555708
 O         -2.4720803706        1.6223559297        1.1259415536
 C         -1.3955206413        0.7615924513        1.2526773976
 O         -0.3469396202        1.3124130378        1.6426713146
 H          1.9518407024       -0.3289800617        0.3031439717
 C          1.5413357141       -0.9800253878       -0.4531391153
 C          0.3523012087       -1.6494264797       -0.2023986037
 C         -0.1827649189       -2.4639862600       -1.1947219262
 C          0.4725616807       -2.6083773971       -2.4037387747
 C          1.6719544610       -1.9598003428       -2.6411410171
 C          2.2092690638       -1.1350231547       -1.6594220247
 N          3.4044743705       -0.4406818834       -1.8824956710
 S          4.4583477995       -0.0969555407       -0.6328606564
 O          5.7140508694        0.1831199417       -1.2963693578
 O          4.4856558529       -1.1554294949        0.3496558278
 C          3.8310549896        1.4069148429        0.0811646549
 C          3.5675429923        2.4693676373       -0.7598721385
 C          3.0911673397        3.6502747183       -0.2149212906
 C          2.8888665823        3.7486335499        1.1532542624
 C          3.1624920315        2.6744281365        1.9845213958
 C          3.6397872595        1.4909608591        1.4453647354
 H          3.8567937007        0.6284214221        2.0563427422
 H          2.9975818848        2.7505363735        3.0472080488
 H          2.5110986396        4.6663456225        1.5756114122
 H          2.8745185691        4.4889020951       -0.8571701033
 H          3.7367387336        2.3553848664       -1.8178011991
 H          3.8815213438       -0.6612387082       -2.7438113836
 H          2.1870101027       -2.0844465682       -3.5816247752
 H          0.0493142161       -3.2412291288       -3.1693224648
 H         -1.1220519005       -2.9637000007       -1.0161249183
 C         -0.3332382838       -1.4586805799        1.1293459830
 H          0.3468909559       -0.8769740210        1.7665583003
 C         -0.6026573932       -2.7852281851        1.8111662046
 C          0.5588870072       -3.5486735841        2.3704480965
 C         -0.4245017590       -2.8955376726        3.2939148844
 H         -1.1057339012       -3.5227992158        3.8491127221
 H         -0.1115918807       -2.0105397597        3.8290894301
 H          0.5541342874       -4.6250683585        2.2919703543
 H          1.5403457390       -3.1072298806        2.2734699439
 H         -1.4102035755       -3.3493063712        1.3648340888
 O         -3.0309004080       -2.3031395942        0.1950547316
