  62
        -98.94522990
 C         -2.4583637265       -1.2267578772       -0.0872035014
 C         -3.4792572120       -0.7539046415        0.7774315141
 C         -4.3037691359        0.3441949471        0.2642664940
 C         -4.0686939528        0.8347813789       -0.9661157861
 C         -4.8318639337        1.9436120052       -1.6382212977
 C         -4.3523304471        3.3503753319       -1.2548253826
 C         -4.7216731862        3.8003560458        0.1592908885
 H         -4.5196360912        4.8717728611        0.2165116952
 H         -5.7919522474        3.6617164312        0.3152904877
 C         -3.9402496204        3.0912125593        1.2743113548
 H         -3.0523373797        2.6144424768        0.8513139829
 H         -3.5891105573        3.8297075649        1.9985705707
 C         -4.7451330020        2.0461792129        2.0472978955
 H         -5.5586090084        2.5364159226        2.5864907562
 H         -4.0837994468        1.5817607083        2.7830288137
 C         -5.3389981304        0.9327521985        1.1745661449
 H         -5.6960208753        0.1359378417        1.8313751682
 H         -6.1803702870        1.3149139951        0.5972405664
 H         -3.2676820593        3.3960703794       -1.3806804484
 H         -4.7983630990        4.0511384760       -1.9644381001
 H         -4.6888626765        1.8124915774       -2.7129984957
 H         -5.8944083763        1.8461192238       -1.4139252508
 O         -3.0886286660        0.3468976130       -1.7709885390
 C         -2.2443486977       -0.6707713637       -1.3484418772
 O         -1.3785733652       -0.9827144972       -2.1903290610
 O         -3.6929464029       -1.2325986752        1.9222867620
 C         -1.5515808795       -2.3308693486        0.4340834916
 C         -0.2131726312       -1.7123150064        0.7541240581
 C         -0.0040906559       -1.1383812144        2.0049597370
 C          1.1831580353       -0.4925730844        2.2954768062
 C          2.1810628211       -0.3932388989        1.3414054250
 C          1.9740901317       -0.9460992675        0.0852838189
 C          0.7927281824       -1.6187148743       -0.1956391112
 H          0.6384707207       -2.0293345664       -1.1811337056
 N          2.9726633348       -0.8227719857       -0.8994350700
 S          3.5513230590        0.7265328312       -1.2048281989
 O          2.5737097655        1.7384044621       -0.8750689006
 O          4.0168048123        0.6988218243       -2.5745263043
 C          4.9615409974        0.8628104612       -0.1240615577
 C          5.9616604710       -0.0828978278       -0.2395950425
 C          7.0681151421        0.0082952069        0.5895182049
 C          7.1571692674        1.0394202351        1.5129627071
 C          6.1467250503        1.9832773723        1.6140794099
 C          5.0366388985        1.8971858101        0.7879794665
 H          4.2240973085        2.6049865863        0.8339961374
 H          6.2175316070        2.7846445998        2.3319319136
 H          8.0191404727        1.1081266402        2.1576090738
 H          7.8560856491       -0.7235124535        0.5133689304
 H          5.8549510993       -0.8645903844       -0.9729264509
 H          2.7223579726       -1.2721730881       -1.7693975400
 H          3.1042220273        0.1202961050        1.5549683781
 H          1.3325596769       -0.0565776053        3.2715458835
 H         -0.7940626569       -1.1902351028        2.7410023201
 H         -2.0094486108       -2.6577004858        1.3772165937
 C         -1.4692936831       -3.5176167308       -0.5022194956
 C         -0.8925594729       -4.8048222948        0.0043561461
 C         -2.3620738631       -4.6977109127       -0.2676138888
 H         -2.7684080351       -5.2129776059       -1.1250558359
 H         -3.0364147211       -4.6546283445        0.5749852621
 H         -0.2871674115       -5.3973933161       -0.6642325070
 H         -0.5682919855       -4.8320980887        1.0335728442
 H         -1.2751366390       -3.2453102103       -1.5320895879
