  62
        -98.93978710
 C         -0.7069422033       -1.7919166383        0.0844902651
 C         -1.9145170419       -1.6474576645        0.8075864737
 C         -2.9161350602       -0.7128794188        0.2620531584
 C         -2.6170523303       -0.0312849290       -0.8587105441
 C         -3.4882984984        0.9664106264       -1.5730637909
 C         -3.5127578226        2.3509279388       -0.8929305385
 C         -3.3873744292        2.3309587891        0.6305851591
 H         -3.1792611015        3.3510227903        0.9668657077
 H         -2.5251519715        1.7248026324        0.9205942680
 C         -4.6314125879        1.8435890324        1.3718003803
 H         -5.4260910842        2.5839647178        1.2479311818
 H         -4.3865577299        1.7932416047        2.4360034219
 C         -5.1803976430        0.4886855645        0.9298641946
 H         -5.5802182190        0.5582665016       -0.0782321628
 H         -6.0228243749        0.2489675332        1.5857236913
 C         -4.2044767247       -0.6801202579        1.0461643773
 H         -4.7431512854       -1.6036881868        0.7981212360
 H         -3.9049854210       -0.7879226764        2.0948335744
 H         -4.4347647208        2.8633156772       -1.1720031969
 H         -2.6759503580        2.9351035065       -1.2807365605
 H         -4.4914894962        0.5575294741       -1.6647550441
 H         -3.0828325453        1.0763579196       -2.5806262373
 O         -1.4169734070       -0.1519235606       -1.4885349601
 C         -0.4291049918       -1.0131135688       -1.0392975492
 O          0.6139245942       -0.9869463845       -1.7170891746
 O         -2.1514789242       -2.2780735050        1.8748382645
 C          0.3313159794       -2.7548161321        0.6282065077
 C          1.6892186262       -2.0990960699        0.6775907064
 C          2.8620786513       -2.7173158743        0.2632880208
 C          4.0752306384       -2.0579483607        0.3618767814
 C          4.1442939554       -0.7680374051        0.8534822459
 C          2.9746605554       -0.1378029410        1.2637664486
 C          1.7677779479       -0.8110817013        1.1929575652
 H          0.8695911581       -0.3116239076        1.5262568644
 N          2.9939447343        1.1797947858        1.7554333643
 S          1.8107269477        2.2498510744        1.2686707169
 O          2.3611415885        3.5532619531        1.5856910681
 O          0.5546919425        1.9397931004        1.9067423747
 C          1.6508451852        2.1126382997       -0.5026099785
 C          0.4112449048        2.3557857028       -1.0547731411
 C          0.2682712118        2.3231014265       -2.4315600833
 C          1.3637937641        2.0426521979       -3.2305547956
 C          2.6036391241        1.8025041242       -2.6618260717
 C          2.7547410974        1.8448428108       -1.2858729637
 H          3.7127469176        1.6605535219       -0.8283801965
 H          3.4532069252        1.5753216838       -3.2855339889
 H          1.2477641669        2.0027679846       -4.3022363786
 H         -0.6986514885        2.5011889098       -2.8746907940
 H         -0.4184724673        2.5479028588       -0.3923454157
 H          3.9027935106        1.6199586012        1.7595514912
 H          5.0895822090       -0.2507276833        0.9197054063
 H          4.9785474166       -2.5523146215        0.0386117100
 H          2.8291663684       -3.7116677134       -0.1498285620
 H          0.0132074193       -2.9346571351        1.6700209040
 C          0.3412863592       -4.1127046170       -0.0612701267
 C         -0.8249970522       -4.5841656736       -0.8761195705
 C          0.4684705566       -4.2416361185       -1.5489061400
 H          1.0674456226       -5.0481097236       -1.9458555390
 H          0.5242590027       -3.3285007855       -2.1201129658
 H         -1.1118383950       -5.6226998390       -0.8030722237
 H         -1.6597256690       -3.9088763384       -0.9975946626
 H          0.8358551801       -4.8710922238        0.5377809653
