  62
        -98.94270690
 C         -0.8735778626       -1.8028020335       -0.3256657698
 C          0.2802239856       -1.6666807539       -1.1280250218
 C          1.5550851627       -2.1075658063       -0.5361911172
 C          1.5747244078       -2.5314617803        0.7411435422
 C          2.7045853160       -3.0504115353        1.6065927138
 C          4.1546748218       -2.9448028368        1.1444328670
 C          4.7095624408       -1.5210606937        1.1185148507
 H          4.8171055256       -1.1733419219        2.1493506208
 H          5.7056239397       -1.5494323564        0.6707634172
 C          3.8616924179       -0.4905013953        0.3761377005
 H          2.8928935845       -0.3762999831        0.8701897585
 H          4.3746398925        0.4730470433        0.4576381958
 C          3.6391931621       -0.7750875202       -1.1077840563
 H          4.6031837624       -0.9002509549       -1.6054054978
 H          3.1445883471        0.0985054782       -1.5394799729
 C          2.7628266041       -1.9974807205       -1.4231130169
 H          2.3810716207       -1.8810115584       -2.4417906872
 H          3.3421054584       -2.9174803439       -1.3939165587
 H          4.7525633766       -3.5171369409        1.8590230427
 H          4.2768793656       -3.4229594256        0.1770964942
 H          2.5971459262       -2.5391565640        2.5691703921
 H          2.4733201330       -4.1055383056        1.7913176750
 O          0.4388731841       -2.5969642026        1.4960012089
 C         -0.7990250540       -2.2343761340        0.9970086468
 O         -1.7352623166       -2.3501223320        1.8118860324
 O          0.2490386995       -1.2040381527       -2.3013669198
 C         -2.2200233527       -1.3666566604       -0.8767202027
 C         -2.7452788254       -0.2379049604       -0.0253697242
 C         -4.0242238771       -0.1960404810        0.5120001252
 C         -4.3957959586        0.8463835553        1.3444996998
 C         -3.5048645903        1.8538696049        1.6640792397
 C         -2.2280790465        1.8307306038        1.1120018958
 C         -1.8717110714        0.8066210550        0.2522489112
 H         -0.8770326942        0.7846607149       -0.1690572317
 N         -1.3044256260        2.8486234226        1.3865088384
 S          0.3405659344        2.6002039359        1.2658006489
 O          0.7349912297        1.2658402579        1.6574287873
 O          0.9236294343        3.6744641236        2.0443429543
 C          0.7245303495        2.8842851300       -0.4512728341
 C          2.0213645841        2.6272875417       -0.8495593232
 C          2.3844685572        2.8658959710       -2.1651644319
 C          1.4461138608        3.3572014443       -3.0592390610
 C          0.1496488971        3.6148299155       -2.6435439076
 C         -0.2185467699        3.3818166989       -1.3272366519
 H         -1.2217539693        3.5699759078       -0.9827005882
 H         -0.5796732431        3.9954990769       -3.3404930352
 H          1.7275138209        3.5381867515       -4.0845717616
 H          3.3941816549        2.6659019086       -2.4872181230
 H          2.7159872650        2.2402204342       -0.1210426859
 H         -1.5530078391        3.4874028048        2.1261553893
 H         -3.7870543132        2.6487922648        2.3372282491
 H         -5.3892342961        0.8638244944        1.7664599433
 H         -4.7235334900       -0.9871283992        0.2972526731
 H         -2.0139379859       -0.9783384776       -1.8850475480
 C         -3.1657814530       -2.5430669632       -0.9855366840
 C         -4.2658672242       -2.5344104545       -2.0036642578
 C         -3.0810362851       -3.4327134853       -2.1882960419
 H         -3.2105367837       -4.4959148623       -2.0524969149
 H         -2.3538313314       -3.1750283062       -2.9442838672
 H         -5.2122696853       -2.9840573330       -1.7438681578
 H         -4.3482446767       -1.6680213494       -2.6420132395
 H         -3.3545535220       -3.0136180987       -0.0270508664
