  62
        -98.93675935
 C         -1.7681033989       -0.9088855681        0.1723495998
 C         -3.1201204529       -1.2402518579        0.4305751020
 C         -4.0849924864       -0.1265136985        0.5151573256
 C         -3.6278537407        1.1331927148        0.3915863378
 C         -4.4144475221        2.4167680206        0.4069322921
 C         -5.1736252467        2.6632145497       -0.9068855899
 C         -5.8906528877        1.4411138386       -1.4746735764
 H         -6.2918469794        1.7165971879       -2.4536614771
 H         -5.1645182411        0.6423167913       -1.6372644373
 C         -7.0465938889        0.9125947546       -0.6286293717
 H         -7.5168514111        0.1026905402       -1.1923368400
 H         -7.7893498717        1.7036493691       -0.5033301787
 C         -6.6730149708        0.3735265259        0.7538448656
 H         -7.5377303602       -0.1802524423        1.1311126621
 H         -6.4957053032        1.1835798657        1.4561690712
 C         -5.4974599552       -0.5986100504        0.7624815643
 H         -5.4716405720       -1.1063133000        1.7343903120
 H         -5.6836611532       -1.3928922516        0.0302939491
 H         -4.4529466751        3.0023266932       -1.6551021068
 H         -5.8935736746        3.4669481319       -0.7438534981
 H         -3.6930235520        3.2245862462        0.5478000705
 H         -5.0932473963        2.4277553124        1.2545802298
 O         -2.3082062515        1.4084008505        0.1910813606
 C         -1.3485124063        0.4170607004        0.0762098696
 O         -0.1942296552        0.8496179202       -0.0950270673
 O         -3.5159126922       -2.4269095512        0.5866624184
 C         -0.7701428458       -2.0458957000        0.0594254703
 C          0.4694756877       -1.7496653286        0.8659576491
 C          0.3402015120       -1.5527128602        2.2392589453
 C          1.4453205750       -1.2880107474        3.0232705592
 C          2.7060437908       -1.2185471496        2.4557107589
 C          2.8483887114       -1.4182300205        1.0884465292
 C          1.7339402535       -1.6850916073        0.3025436752
 H          1.8728675958       -1.8110909317       -0.7576044773
 N          4.1241292235       -1.4003642913        0.4969587258
 S          4.4708570105       -0.4713264169       -0.8496925023
 O          3.5811016427       -0.8105369430       -1.9289024860
 O          5.8797235071       -0.6997997971       -1.0896107977
 C          4.2356400432        1.2180728772       -0.3264352650
 C          2.9557252638        1.7006569096       -0.1415701979
 C          2.7967535171        3.0007089214        0.3145707012
 C          3.9059904420        3.7895910121        0.5756672794
 C          5.1847807622        3.2873876693        0.3849586090
 C          5.3530625603        1.9886563971       -0.0657651914
 H          6.3268440367        1.5561774405       -0.2300727510
 H          6.0473243217        3.9017982957        0.5874835344
 H          3.7720953778        4.8000422095        0.9289817944
 H          1.7967751739        3.3769642983        0.4617182730
 H          2.0972155930        1.0805507140       -0.3447754021
 H          4.8795635521       -1.3129165780        1.1622247040
 H          3.5723882281       -1.0144383277        3.0666619242
 H          1.3270781741       -1.1330462123        4.0851621970
 H         -0.6454039423       -1.6053537668        2.6822648994
 H         -1.2796381422       -2.9042361238        0.5299589084
 C         -0.4628556776       -2.4575008724       -1.3726015670
 C         -1.4613183062       -2.2640733225       -2.4732766341
 C         -0.2012303026       -1.4545324865       -2.4542158652
 H          0.5712908457       -1.6699170236       -3.1783520587
 H         -0.2631870039       -0.4098646250       -2.1924142435
 H         -1.5650172105       -3.0426277187       -3.2140339475
 H         -2.3893093026       -1.7682162912       -2.2277017572
 H          0.1192326671       -3.3736779888       -1.4135427484
