  62
        -98.94702446
 C         -2.2590438913       -0.6079810843       -0.4844331076
 C         -1.4606323020        0.3517996264       -1.1511348475
 C         -1.8049318869        1.7610633388       -0.9107173953
 C         -2.8142602043        2.0665811889       -0.0774761801
 C         -3.2359471411        3.4580058143        0.2944139176
 C         -2.5105110164        3.9480446892        1.5547892195
 C         -0.9936088837        3.7586535003        1.5152109077
 H         -0.5890457549        4.1879643324        2.4350560669
 H         -0.7555609297        2.6918404191        1.5354370213
 C         -0.3018499871        4.4013525368        0.3049977549
 H          0.5968772597        4.9159654809        0.6517606158
 H         -0.9548908606        5.1513865334       -0.1440494945
 C          0.1426241204        3.3991564285       -0.7617918374
 H          0.6822660420        2.5827076170       -0.2752790063
 H          0.8396416888        3.9028605418       -1.4374002676
 C         -0.9816923023        2.8010689474       -1.6178084124
 H         -1.6188246441        3.6012163519       -2.0009121945
 H         -0.5199236702        2.2927245076       -2.4691649650
 H         -2.9000447016        3.3987705600        2.4152490153
 H         -2.7413782322        5.0061604540        1.6943984700
 H         -4.3105330747        3.4499597303        0.4863205896
 H         -3.0306590633        4.1282297005       -0.5381567911
 O         -3.5566966485        1.1218896517        0.5546983092
 C         -3.2901523837       -0.2237966373        0.3783734376
 O         -4.0433201900       -0.9801890899        1.0263229893
 O         -0.5052945817        0.0742187747       -1.9247524727
 C         -2.0375751223       -2.1107923704       -0.5834747542
 C         -1.0094369383       -2.5435943655        0.4356309352
 C         -1.3017344549       -3.5258171281        1.3737634837
 C         -0.3696438233       -3.8784625009        2.3337416546
 C          0.8522962957       -3.2344508191        2.3951821265
 C          1.1543503419       -2.2485695558        1.4610096125
 C          0.2390105248       -1.9383449345        0.4676061359
 H          0.4837682842       -1.1844203624       -0.2602330638
 N          2.3782047791       -1.5651979525        1.5120549451
 S          2.4574545865        0.1055156467        1.3058498620
 O          3.3270457901        0.5667705798        2.3713349024
 O          1.1435197318        0.6956800511        1.2599564301
 C          3.3333399261        0.2838106690       -0.2354134003
 C          2.6575875945        0.4360479823       -1.4284669535
 C          3.3914187704        0.5479606195       -2.6005669995
 C          4.7756968384        0.5029466179       -2.5634915757
 C          5.4400149121        0.3482337097       -1.3557786329
 C          4.7143487288        0.2374764867       -0.1819504117
 H          5.1887960935        0.1311666722        0.7795781631
 H          6.5172008966        0.3142566881       -1.3263438114
 H          5.3383941451        0.5901760061       -3.4796739802
 H          2.8683765236        0.6670081373       -3.5360879371
 H          1.5787500873        0.4653934371       -1.4464461720
 H          2.9689862982       -1.8444440350        2.2821405023
 H          1.5673993237       -3.4848176369        3.1646549190
 H         -0.6058904405       -4.6449685318        3.0564217521
 H         -2.2731343583       -3.9980561547        1.3611045575
 H         -2.9955431109       -2.5713636333       -0.3042414639
 C         -1.6627186895       -2.5940800495       -1.9702264591
 C         -1.9546098201       -4.0146480854       -2.3456214768
 C         -2.7459277075       -2.8990601968       -2.9585830811
 H         -2.5792408961       -2.6527456221       -3.9962544318
 H         -3.7683811735       -2.7618359746       -2.6369157560
 H         -1.2422268135       -4.5395539684       -2.9631080235
 H         -2.4436712481       -4.6373740759       -1.6118105072
 H         -0.7540425472       -2.1481543021       -2.3508231655
