  62
        -98.94398168
 C         -2.0409954402       -0.7911494156        0.1533711244
 C         -1.7124510506       -1.8171016822       -0.7622005886
 C         -0.7169824422       -2.8083052436       -0.3150376093
 C         -0.1955335190       -2.6956169472        0.9188262925
 C          0.8847147049       -3.5309540596        1.5488233403
 C          2.2683579239       -2.9084770095        1.2917898927
 C          2.9533230746       -3.3687334947        0.0065868341
 H          3.8674317021       -2.7801891799       -0.1029135810
 H          3.2447584086       -4.4166988550        0.1091159554
 C          2.1240322679       -3.2155130701       -1.2707299143
 H          1.6430878644       -2.2348080816       -1.2893119249
 H          2.8130430663       -3.2383442705       -2.1182201378
 C          1.0796915466       -4.3274189289       -1.4515770898
 H          1.2875288717       -5.1331705163       -0.7475136655
 H          1.1797671876       -4.7564265450       -2.4512323910
 C         -0.3808818602       -3.8810004621       -1.3146227230
 H         -1.0025668834       -4.7585019758       -1.1026604668
 H         -0.7251309993       -3.4818084266       -2.2743665481
 H          2.9243563766       -3.1534112123        2.1296300899
 H          2.1546668662       -1.8212202650        1.2705661042
 H          0.6930546694       -3.5234408732        2.6237501082
 H          0.8415968170       -4.5559910011        1.1935706889
 O         -0.5682056498       -1.7121748342        1.7835463230
 C         -1.4705508797       -0.7247531406        1.4232345738
 O         -1.6730079622        0.1302523909        2.3058760043
 O         -2.2235484964       -1.8954967303       -1.9131863915
 C         -2.9738153093        0.3242032833       -0.2863080189
 C         -2.1955048675        1.6185045172       -0.3049387714
 C         -2.5967304013        2.7754975756        0.3490762619
 C         -1.7982511999        3.9063255713        0.3188367830
 C         -0.5861900881        3.9035682988       -0.3464075282
 C         -0.1799930858        2.7539952589       -1.0162649581
 C         -0.9954557855        1.6338177858       -1.0070199796
 H         -0.6784564106        0.7472682073       -1.5373811063
 N          1.0405505268        2.7213455729       -1.7157701145
 S          2.1176008690        1.4591502224       -1.5109339002
 O          3.2921687850        1.8637122239       -2.2516404177
 O          1.5078363839        0.2159405379       -1.9028927656
 C          2.4924813574        1.4387604461        0.2305769844
 C          1.5684259920        0.8853329588        1.0926584741
 C          1.8190980744        0.9040902375        2.4551227307
 C          2.9925300616        1.4697721140        2.9295827642
 C          3.9147866960        2.0196587047        2.0510405400
 C          3.6629509481        2.0116191243        0.6884171414
 H          4.3514337031        2.4253991779       -0.0305284334
 H          4.8267892951        2.4565331267        2.4248893354
 H          3.1867024738        1.4804998889        3.9904330263
 H          1.0860236791        0.4784003028        3.1229464384
 H          0.6656747062        0.4499722424        0.6941598984
 H          1.5394320063        3.5997486745       -1.7122005666
 H          0.0414958131        4.7817489963       -0.3531159137
 H         -2.1188870904        4.7988823748        0.8340412227
 H         -3.5288520232        2.7903219864        0.8890606610
 H         -3.2556706713        0.0789334708       -1.3210872891
 C         -4.2236190048        0.3679523829        0.5651517718
 C         -5.4902573629        0.9440419095        0.0083886574
 C         -5.3681547357       -0.5345077552        0.2181608363
 H         -5.9260846655       -0.9914740898        1.0216021953
 H         -5.2547104843       -1.1687118296       -0.6491962216
 H         -6.1373699503        1.5020007742        0.6680641123
 H         -5.4668817727        1.3148733818       -1.0052247143
 H         -4.0085014376        0.5192777306        1.6165781337
