  62
        -98.93464999
 C         -2.1691583371       -0.8303644222        0.1115898425
 C         -3.0328685826       -0.2322154167        1.0607787705
 C         -3.8838137760        0.8742667313        0.5882787796
 C         -3.7694137525        1.2936189783       -0.6854743726
 C         -4.4679321094        2.4075521151       -1.4372159683
 C         -5.7091624972        3.0817817403       -0.8588008218
 C         -6.9475042060        2.1884351098       -0.7874774002
 H         -7.7338554334        2.7351936521       -0.2626245251
 H         -7.2970480699        1.9985911350       -1.8054385437
 C         -6.7474559699        0.8345343662       -0.1109688573
 H         -7.7006565660        0.2999824387       -0.1442306021
 H         -6.0278487224        0.2428899955       -0.6807359334
 C         -6.2991168112        0.8920985245        1.3480168410
 H         -6.3454961294       -0.1246929701        1.7478743198
 H         -6.9938050509        1.5079315686        1.9224863581
 C         -4.8716779757        1.4160170505        1.5810713811
 H         -4.8468804330        2.5030789592        1.5954098620
 H         -4.5400987275        1.0681871143        2.5640168147
 H         -5.4874024622        3.5064647939        0.1159326621
 H         -5.9452714453        3.9188262078       -1.5214652043
 H         -3.7039750418        3.1744418246       -1.6064560749
 H         -4.7109124286        1.9947737350       -2.4215623713
 O         -2.8685524007        0.7343890283       -1.5444146305
 C         -2.0550739931       -0.3314181461       -1.1856790235
 O         -1.2989442463       -0.7136436833       -2.0960673091
 H          0.2151232303        0.0798821501        1.2180513565
 C          0.7672666930       -0.6193794945        0.6005819884
 C          0.1294476667       -1.7709110947        0.1536602568
 C          0.8474737287       -2.6601179689       -0.6337212907
 C          2.1629811686       -2.3915157709       -0.9704642186
 C          2.7883757568       -1.2386728444       -0.5345899993
 C          2.0812392388       -0.3429698871        0.2573812966
 N          2.7022156727        0.8416983231        0.6907253971
 S          4.2111500020        0.7332804923        1.4178058758
 O          4.3826756175       -0.5319531705        2.0937378505
 O          4.3196475267        1.9196136733        2.2389990304
 C          5.3559360698        0.8629810983        0.0607524134
 C          6.3095455001       -0.1170994537       -0.1330084123
 C          7.1969337748        0.0115034990       -1.1902692933
 C          7.1162377570        1.1124556872       -2.0290574443
 C          6.1545609876        2.0896147805       -1.8187365653
 C          5.2651177917        1.9675463255       -0.7632774006
 H          4.5057478609        2.7052972612       -0.5639264714
 H          6.0945290104        2.9443383995       -2.4731493503
 H          7.8068612268        1.2101354852       -2.8517385076
 H          7.9456391703       -0.7465231684       -1.3552875202
 H          6.3309477073       -0.9579964163        0.5417680928
 H          2.0939982181        1.4504259143        1.2187397856
 H          3.8099561306       -1.0240557450       -0.8023421321
 H          2.7072164225       -3.0882323600       -1.5896256494
 H          0.3720841531       -3.5538984156       -1.0023091826
 C         -1.3030840187       -1.9878622826        0.5732354233
 H         -1.3392946749       -1.9305896142        1.6747895706
 C         -1.8432120870       -3.3597850812        0.1980575061
 C         -3.3107321228       -3.5802347435       -0.0119617845
 C         -2.3663993474       -3.6711613182       -1.1709881017
 H         -2.1615557272       -4.6467973337       -1.5870660886
 H         -2.3630683698       -2.8761047564       -1.8997060121
 H         -3.9605702193       -2.7194543129        0.0525093830
 H         -3.7525144912       -4.4891958666        0.3680650710
 H         -1.3086336722       -4.1559445038        0.7073927415
 O         -3.0857133036       -0.6004205023        2.2657271035
