  62
        -98.94396801
 C         -1.7742292696       -1.2037681887        0.4146565748
 C         -1.9097446790       -0.2848358339       -0.6536227368
 C         -3.2857590480       -0.0353288107       -1.1098399935
 C         -4.3047127040       -0.6940219146       -0.5281762493
 C         -5.7551941494       -0.4970597558       -0.8595007407
 C         -6.3876433362        0.5777727439        0.0355706166
 C         -5.5774186870        1.8718752498        0.1124401398
 H         -6.1337348439        2.5673778132        0.7446108796
 H         -4.6281325944        1.6707913394        0.6145081778
 C         -5.2992675553        2.5280540203       -1.2471371870
 H         -5.4859033818        3.6007558993       -1.1630168288
 H         -5.9894121787        2.1370943013       -1.9956491485
 C         -3.8630495799        2.3651119785       -1.7490841102
 H         -3.1623990056        2.6685263395       -0.9663546838
 H         -3.7192586206        3.0435764232       -2.5944527685
 C         -3.4754607503        0.9579812538       -2.2213266665
 H         -4.2104396919        0.5963243774       -2.9434461089
 H         -2.5065228428        1.0334482532       -2.7239365443
 H         -7.3888074696        0.7953990343       -0.3407293255
 H         -6.4844084914        0.1742117491        1.0461029261
 H         -5.8484301387       -0.2143930137       -1.9061389003
 H         -6.2758955804       -1.4425963445       -0.6994427186
 O         -4.1306335375       -1.5914083098        0.4753995618
 C         -2.8692885110       -1.8536705290        0.9841903222
 O         -2.8534741063       -2.6709083573        1.9267553486
 O         -0.9359678027        0.2959390724       -1.2006668394
 C         -0.4013299323       -1.5049542351        0.9889367313
 C          0.2197116136       -0.2380549127        1.5261323570
 C         -0.5100349094        0.5366690687        2.4250626551
 C          0.0238511462        1.6937330291        2.9567371483
 C          1.2955296995        2.1077801471        2.5982583116
 C          2.0336872323        1.3430720532        1.7051817542
 C          1.4977501442        0.1726062536        1.1833634580
 H          2.0893414431       -0.4116713903        0.5004627560
 N          3.3417316209        1.7120401905        1.3443125045
 S          3.7338178843        1.8089815946       -0.2872100230
 O          4.9373846809        2.6147182929       -0.3124427728
 O          2.6273940955        2.3015382568       -1.0725278294
 C          4.1554784969        0.1465776416       -0.7606147909
 C          5.1941127239       -0.4790887252       -0.0994154134
 C          5.5512438420       -1.7628039200       -0.4792945737
 C          4.8717994939       -2.3917747948       -1.5120739623
 C          3.8328339152       -1.7478652285       -2.1676592915
 C          3.4679917289       -0.4648212180       -1.7903260499
 H          2.6559638208        0.0678501583       -2.2609068616
 H          3.3019111859       -2.2393761613       -2.9676406334
 H          5.1509538337       -3.3909800305       -1.8081037202
 H          6.3563265058       -2.2689928908        0.0283680706
 H          5.7014895679        0.0481960383        0.6909180284
 H          3.6859270594        2.5297006264        1.8286180642
 H          1.7120727910        3.0161046426        3.0074160271
 H         -0.5550552541        2.2835268703        3.6517984241
 H         -1.5054076980        0.2148950790        2.7016183755
 H         -0.5740152883       -2.1808033942        1.8395231035
 C          0.4600996578       -2.2191460820       -0.0309349415
 C          1.5507492759       -3.1397423210        0.4255739563
 C          0.3080786175       -3.7000903217       -0.1966872447
 H          0.3688168026       -4.1156935190       -1.1910737896
 H         -0.4073778689       -4.1988252146        0.4411575809
 H          2.4690207952       -3.1715189890       -0.1409142298
 H          1.6828788735       -3.2639934124        1.4896461397
 H          0.6249337615       -1.6293817131       -0.9254004689
