  62
        -98.94109870
 C         -0.7763366045       -1.1916690808        0.0016397040
 C         -1.5052282537       -0.5270193051        1.0144091155
 C         -2.4534087765        0.5060515870        0.5651751908
 C         -2.5505069551        0.7862396138       -0.7457303256
 C         -3.4846475470        1.7528372965       -1.4307369953
 C         -4.9425050564        1.7858560004       -0.9480647172
 C         -5.4961485095        0.4470976413       -0.4387719363
 H         -6.4432509625        0.2405237882       -0.9406683904
 H         -4.8109233753       -0.3641558670       -0.6899805323
 C         -5.7555324595        0.4459143662        1.0698991473
 H         -6.2206890130        1.3948225094        1.3460724689
 H         -6.4697128107       -0.3472015092        1.3041753629
 C         -4.5246416095        0.2187160110        1.9471983331
 H         -4.1951794691       -0.8203837456        1.8628937706
 H         -4.8178756465        0.3765307934        2.9880932571
 C         -3.3145938309        1.1139621438        1.6344524273
 H         -2.6929307121        1.1618076231        2.5331662060
 H         -3.6284477187        2.1223685960        1.3756381740
 H         -5.5452675042        2.1305635313       -1.7899261577
 H         -5.0485789834        2.5320446768       -0.1617554849
 H         -3.0681248111        2.7599554962       -1.3544404752
 H         -3.4561308933        1.4704792134       -2.4855344604
 O         -1.7513299978        0.1922090481       -1.6755689894
 C         -0.8583445797       -0.8114356389       -1.3367673602
 O         -0.2175002461       -1.2739622851       -2.2980498423
 O         -1.3857475755       -0.7966817239        2.2403870175
 C          0.1001577993       -2.3727793599        0.3780967596
 C          1.5224840437       -2.1498133359       -0.0652572549
 C          2.2090067870       -3.0118529455       -0.9100329822
 C          3.5125809131       -2.7345198877       -1.2826003381
 C          4.1552475332       -1.6005425154       -0.8233275498
 C          3.4808569622       -0.7383167605        0.0354035687
 C          2.1771194865       -1.0195209393        0.4102953230
 H          1.6616926501       -0.3547064721        1.0890885817
 N          4.1178238869        0.4062020069        0.5308276067
 S          3.2694590458        1.7170412950        1.0931349169
 O          4.2313240219        2.7995055272        1.0587592446
 O          2.7051033700        1.4322160169        2.3890887591
 C          1.9675251668        2.0656971619       -0.0758956228
 C          0.7951193379        2.6041349616        0.4130750127
 C         -0.1966611445        2.9790685047       -0.4774099746
 C         -0.0060047411        2.7965015265       -1.8379617872
 C          1.1703140066        2.2397405557       -2.3130769514
 C          2.1730482433        1.8790922482       -1.4278562969
 H          3.0973254534        1.4517116008       -1.7808586969
 H          1.3085072375        2.0832980491       -3.3706718225
 H         -0.7787775308        3.0821964445       -2.5338860347
 H         -1.1102838758        3.4099850451       -0.1004324982
 H          0.6784691260        2.7125903201        1.4799321479
 H          4.9939421884        0.6526747790        0.0965881597
 H          5.1699789218       -1.3818899246       -1.1181568575
 H          4.0335115027       -3.4089839337       -1.9449121084
 H          1.7229552773       -3.8968973065       -1.2847978204
 H          0.0893204665       -2.4053797034        1.4777902878
 C         -0.5138055016       -3.6519583873       -0.1539388829
 C         -0.2314687603       -4.9608102813        0.5189876781
 C         -1.5846000439       -4.3295112524        0.6453248431
 H         -2.4156219792       -4.7769216521        0.1207244767
 H         -1.8560643925       -3.8818225887        1.5904368233
 H         -0.1352437714       -5.8458034829       -0.0915190948
 H          0.4160824517       -4.9477756063        1.3825687278
 H         -0.6289894426       -3.6432499085       -1.2322384614
