  62
        -98.94803911
 C          1.2658954831        1.0575813350        0.0178762507
 C          1.6175422388       -0.0411381045        0.8370155069
 C          2.6428005256       -0.9441769102        0.3003900265
 C          3.1314484724       -0.7221849531       -0.9334376729
 C          4.2066680573       -1.5388138887       -1.5887475614
 C          5.6001517325       -0.9664951248       -1.2929302096
 C          5.8481245466       -0.6792078401        0.1878346191
 H          6.8712435619       -0.3086791786        0.2801326055
 H          5.1834146992        0.1255011538        0.5098046646
 C          5.6580557587       -1.8919134514        1.1095216151
 H          6.4907551508       -1.9301829660        1.8149330868
 H          5.6873524853       -2.8110893552        0.5232994510
 C          4.3730148541       -1.8620658742        1.9388215203
 H          4.4423431347       -2.6420708063        2.7016819489
 H          4.2942317575       -0.9028646761        2.4565287151
 C          3.0714852084       -2.0984968639        1.1619085281
 H          3.1548935929       -3.0109310819        0.5671199171
 H          2.2684956994       -2.2419785992        1.8913177271
 H          5.7143071423       -0.0322618830       -1.8475293042
 H          6.3473516624       -1.6728191322       -1.6592742528
 H          4.1397366973       -2.5663881545       -1.2358386464
 H          4.0375200520       -1.5254371496       -2.6669791489
 O          2.7272677450        0.3101583783       -1.7165619092
 C          1.7851315784        1.2240244845       -1.2656207562
 O          1.5023900240        2.1168232102       -2.0871715684
 H         -0.8315455876       -0.1422825714       -0.6089803506
 C         -1.4333058446        0.7298432704       -0.8117241347
 C         -1.0228122744        1.9702847854       -0.3440598964
 C         -1.7988922596        3.0814332665       -0.6505493303
 C         -2.9441328029        2.9442617276       -1.4159743985
 C         -3.3553679288        1.7034234914       -1.8680980974
 C         -2.5888302189        0.5849173181       -1.5615739406
 N         -2.9624474214       -0.6966024868       -1.9927582646
 S         -2.6710357297       -2.0158150119       -1.0070246158
 O         -1.2727570532       -2.3666809630       -1.0306544020
 O         -3.5816403569       -3.0292463389       -1.4972389867
 C         -3.1808179042       -1.4893553522        0.6197266135
 C         -2.2553708539       -1.2300902632        1.6091448877
 C         -2.7026966552       -0.7708321531        2.8386990863
 C         -4.0574071981       -0.5804544068        3.0581466819
 C         -4.9765523308       -0.8546281325        2.0561742257
 C         -4.5360280837       -1.3101235472        0.8251865473
 H         -5.2190149274       -1.5455646177        0.0252009244
 H         -6.0307595807       -0.7115748225        2.2301671856
 H         -4.3976560256       -0.2192849990        4.0158096441
 H         -1.9790338046       -0.5601740951        3.6101365722
 H         -1.2034236916       -1.3778578910        1.4202762777
 H         -3.8633586673       -0.7518844357       -2.4441244619
 H         -4.2513224367        1.5992879047       -2.4603376678
 H         -3.5313757215        3.8171321666       -1.6571774244
 H         -1.5023056117        4.0555716559       -0.2979282871
 C          0.2185933185        2.0364919666        0.5128208018
 H         -0.0560440213        1.6834820736        1.5192377801
 C          0.7975315700        3.4315493642        0.6276742514
 C          0.3154960340        4.3688845631        1.6933284503
 C          1.6776849869        3.7539774843        1.7970988224
 H          2.5435115437        4.3781605648        1.6346455070
 H          1.8337486120        2.9745170901        2.5287954792
 H          0.2476768179        5.4210628698        1.4612257726
 H         -0.4511946592        4.0126315974        2.3644946969
 H          1.0739270407        3.8456125919       -0.3353255251
 O          1.0934562675       -0.2574134609        1.9638938691
