  62
        -98.94157819
 C          1.7780921148        1.0736786030        0.6656580798
 C          1.9545623564       -0.3137177599        0.9161293782
 C          3.3041591243       -0.8476550964        0.7100582741
 C          4.2940721186       -0.0209618663        0.3280831886
 C          5.7340489609       -0.4005216703        0.1126015803
 C          6.0263321268       -0.9852537299       -1.2759180606
 C          5.4965981108       -2.4006047302       -1.5093248059
 H          5.8305449796       -3.0499947574       -0.6994920497
 H          5.9554676793       -2.7662574441       -2.4301240462
 C          3.9703529704       -2.4900457096       -1.6487952259
 H          3.7198099508       -3.1190803053       -2.5059543852
 H          3.5640436392       -1.4965322606       -1.8527774943
 C          3.2546548770       -3.0764695512       -0.4317111547
 H          3.5540151519       -4.1183444631       -0.2981249071
 H          2.1791015258       -3.0553204918       -0.6246926714
 C          3.5150039821       -2.3219651182        0.8786668598
 H          4.5251544714       -2.5232987887        1.2348666052
 H          2.8012467033       -2.6758787816        1.6263266914
 H          7.1115890489       -1.0008744643       -1.4007008211
 H          5.6147908925       -0.3125916844       -2.0320137626
 H          6.0438360120       -1.1104764118        0.8800822249
 H          6.3173794359        0.5153066501        0.2300598283
 O          4.0902373476        1.3030421925        0.1081501354
 C          2.8332020123        1.8795930464        0.2377399794
 O          2.8182740479        3.0928997037       -0.0502814984
 O          1.0242783302       -1.0680099624        1.3061945388
 C          0.3765121791        1.6188694928        0.8741744564
 C         -0.3963600799        1.6762660170       -0.4218608357
 C          0.0032144110        2.4929728587       -1.4744999422
 C         -0.7383813131        2.5381296566       -2.6405803757
 C         -1.8955818879        1.7901090294       -2.7724675501
 C         -2.3018292456        0.9694267674       -1.7271364387
 C         -1.5432434754        0.9098410488       -0.5664117565
 H         -1.8539343291        0.2597554391        0.2370151613
 N         -3.4582529184        0.1862712295       -1.8341537097
 S         -4.4302907354       -0.0799444408       -0.4990610148
 O         -5.7124675714       -0.4515955468       -1.0585187275
 O         -4.4331712537        1.0556560181        0.3931654618
 C         -3.7154392561       -1.4995862144        0.3006885909
 C         -3.4919349078       -1.4750003608        1.6626690189
 C         -2.9556560318       -2.5962943527        2.2751245276
 C         -2.6550204064       -3.7174425894        1.5179873392
 C         -2.8884154205       -3.7274702443        0.1512134857
 C         -3.4257394454       -2.6101104827       -0.4666485325
 H         -3.6212017506       -2.5814130343       -1.5257029698
 H         -2.6502801531       -4.6014997376       -0.4334796040
 H         -2.2329276773       -4.5869293310        1.9967026560
 H         -2.7694277158       -2.5886437870        3.3371901761
 H         -3.7322724345       -0.5786699901        2.2131423188
 H         -3.9960827943        0.3248834646       -2.6769232825
 H         -2.4795012960        1.8386300126       -3.6791177980
 H         -0.4185486650        3.1728546899       -3.4533875478
 H          0.9010474272        3.0827919166       -1.3704919324
 H         -0.1225836928        0.8812682292        1.5178057588
 C          0.3298744558        2.9652271689        1.5706267679
 C         -0.9721568937        3.4234808743        2.1543316658
 C          0.1536919484        3.0182940016        3.0569209875
 H          0.6735140787        3.7864452825        3.6096376521
 H          0.0713511520        2.0797841319        3.5854931993
 H         -1.2250012985        4.4706120320        2.0868134318
 H         -1.8230946829        2.7638867848        2.0627045060
 H          0.9682433756        3.7108734501        1.1155280537
