  62
        -98.94372208
 C         -1.2897982468       -1.4185208438        0.5856040489
 C         -2.1001572382       -1.0345187401       -0.5114554391
 C         -3.1782201622       -0.0803479883       -0.2099845519
 C         -3.3204469149        0.3889443638        1.0418199353
 C         -4.3383015335        1.4055328368        1.4688704583
 C         -3.7740681515        2.8300154744        1.3757888473
 C         -3.0950809771        3.1458476338        0.0423876123
 H         -2.7780788660        4.1908224741        0.0812508527
 H         -2.1830965778        2.5493669321       -0.0493174005
 C         -3.9817349610        2.9269563599       -1.1917214267
 H         -3.8535619453        3.7767861461       -1.8655477842
 H         -5.0308730442        2.9043097834       -0.8935439292
 C         -3.6552316295        1.6680749080       -1.9973834790
 H         -4.1721733840        1.7363267985       -2.9584682695
 H         -2.5817441729        1.6360395360       -2.2035683524
 C         -4.0619520368        0.3379972344       -1.3506552008
 H         -5.1065121533        0.3844726368       -1.0361087464
 H         -3.9636982878       -0.4433337042       -2.1100002078
 H         -4.5897270325        3.5356538326        1.5458249580
 H         -3.0357688707        2.9647656578        2.1699600797
 H         -4.6146254610        1.2020985409        2.5050701076
 H         -5.2228683584        1.3122482226        0.8418087886
 O         -2.5078648821        0.0194050164        2.0645225453
 C         -1.4544603402       -0.8553602224        1.8528301068
 O         -0.7418864793       -1.0497789875        2.8590934367
 O         -1.9413367982       -1.4555006868       -1.6861196639
 C         -0.0922438774       -2.3354612941        0.4033631227
 C          0.7357029398       -1.8518987359       -0.7632887904
 C          1.2442241521       -2.6698801052       -1.7628980312
 C          2.0133568742       -2.1296547061       -2.7800771707
 C          2.3081131258       -0.7788490637       -2.8143085268
 C          1.8012105366        0.0481912048       -1.8179972299
 C          1.0259219330       -0.4947444528       -0.8088136967
 H          0.6094962342        0.1590708400       -0.0578137964
 N          2.0617888252        1.4268574759       -1.8053232423
 S          2.2120729056        2.2178986859       -0.3414573795
 O          0.9182421419        2.4201663991        0.2615295331
 O          2.9510350447        3.4209629022       -0.6614282417
 C          3.2241108521        1.1393454333        0.6575653327
 C          4.5293108054        0.9399235361        0.2495232739
 C          5.3354022686        0.0748672266        0.9701025296
 C          4.8239664230       -0.5788232432        2.0812718778
 C          3.5151952732       -0.3632891832        2.4826513911
 C          2.7046055718        0.5041502320        1.7665275468
 H          1.6804639540        0.6829423324        2.0570081983
 H          3.1094788797       -0.8687270805        3.3447967648
 H          5.4477159702       -1.2585145728        2.6399740247
 H          6.3553813629       -0.0904848294        0.6629455999
 H          4.8936734932        1.4738447768       -0.6129902511
 H          2.7314302105        1.7476476721       -2.4883464053
 H          2.9083688700       -0.3630151166       -3.6088072110
 H          2.3937280074       -2.7737227859       -3.5582794588
 H          1.0216285674       -3.7241114019       -1.7613031336
 H          0.5141702341       -2.1834494433        1.3127825867
 C         -0.4209388524       -3.8200259606        0.3515475119
 C         -1.7090967180       -4.3495421376        0.9061306375
 C         -1.4595911577       -4.3818322566       -0.5703383322
 H         -1.2679822997       -5.3383396230       -1.0345634685
 H         -1.9927340170       -3.6867939380       -1.1986122332
 H         -1.6869933647       -5.2786318575        1.4560500406
 H         -2.4217621411       -3.6325245097        1.2882723285
 H          0.4575237148       -4.4341399323        0.5239952861
