  62
        -98.93956493
 C         -2.2781162680       -0.8942372276        0.6408137565
 C         -3.4231297279       -0.8916120464       -0.1934934465
 C         -4.4331809711        0.1365604754        0.1031958644
 C         -4.2256192362        1.0034957576        1.1096497108
 C         -5.1424008497        2.1344044928        1.4741655090
 C         -4.7626299768        3.4217321779        0.7290887933
 C         -4.5690798495        3.2313602586       -0.7754128567
 H         -4.3351094019        4.2105806585       -1.1988900378
 H         -3.6982547724        2.5931840037       -0.9440387583
 C         -5.7832159011        2.6361593390       -1.5021330891
 H         -6.6751038342        2.7468313519       -0.8844126760
 H         -5.9524834567        3.2015876355       -2.4208623966
 C         -5.6242633717        1.1689444016       -1.9044140687
 H         -6.4345237255        0.9156765599       -2.5931701026
 H         -4.6826175209        1.0367816142       -2.4430537717
 C         -5.6675486252        0.1546897951       -0.7547541625
 H         -6.5564821349        0.3267286450       -0.1448779329
 H         -5.7398676035       -0.8435715086       -1.1957311048
 H         -3.8277351887        3.8010753765        1.1485713799
 H         -5.5415569728        4.1654899478        0.9067245251
 H         -6.1670871703        1.8542953511        1.2376792613
 H         -5.0611768679        2.3093184898        2.5482895318
 O         -3.1157210735        0.9718155656        1.8918436647
 C         -2.1248864297        0.0298834125        1.6794261083
 O         -1.1705667050        0.1080037707        2.4811755773
 H          1.4329895308       -1.1052200334        0.7186795218
 C          1.1064335532       -1.1099147404       -0.3107343068
 C         -0.1966846790       -1.4726108290       -0.6210838157
 C         -0.6008617493       -1.4510254587       -1.9520411817
 C          0.2834907085       -1.0671192064       -2.9430977287
 C          1.5806403308       -0.7014815701       -2.6301752045
 C          1.9969160403       -0.7263644105       -1.3038696251
 N          3.3257334070       -0.4081236463       -0.9722739178
 S          3.6586677344        0.3686746848        0.4886063749
 O          3.5851156644       -0.5968357465        1.5559148846
 O          2.8387344289        1.5524886689        0.6230442658
 C          5.3622046014        0.8186374586        0.2121909008
 C          5.6833262452        2.1195137872       -0.1251457132
 C          7.0105602941        2.4426115623       -0.3618963823
 C          7.9879307504        1.4642187659       -0.2607224628
 C          7.6502803654        0.1624985696        0.0796484563
 C          6.3258451646       -0.1667345537        0.3191442764
 H          6.0167552779       -1.1612424479        0.5953447808
 H          8.4131240438       -0.5949570905        0.1600587537
 H          9.0196921027        1.7183061298       -0.4455178285
 H          7.2761368793        3.4542566283       -0.6233354329
 H          4.8904432517        2.8477836524       -0.1848382487
 H          3.8177336007        0.0365224435       -1.7359903100
 H          2.2685422761       -0.4019903761       -3.4064259106
 H         -0.0423611114       -1.0482902168       -3.9722387040
 H         -1.6164475170       -1.7206736742       -2.1968974255
 C         -1.1367492607       -1.8877649241        0.4860069183
 H         -0.5741792373       -1.8370037996        1.4288384925
 C         -1.6070062673       -3.3163855656        0.2887731034
 C         -0.6612351903       -4.4348286189        0.6014713437
 C         -1.8423882448       -4.1808013885        1.4885804990
 H         -2.6658868680       -4.8785934144        1.4669358486
 H         -1.6653930105       -3.7439248576        2.4611897898
 H         -0.6715065857       -5.3097636998       -0.0299959856
 H          0.3178277669       -4.1703436026        0.9732417711
 H         -2.2762229336       -3.4390296435       -0.5519215953
 O         -3.6194607594       -1.6965277898       -1.1416333534
