  62
        -98.94266473
 C          0.9183595605        1.3126926978       -0.3979893272
 C          1.8609720852        1.4147321294        0.6581589265
 C          2.8351043151        0.3236554128        0.7785661212
 C          2.7748154832       -0.7035374453       -0.0878026122
 C          3.7535878505       -1.8398035457       -0.1400582612
 C          4.9231193493       -1.5214197451       -1.0829138256
 C          5.5635945236       -0.1550514129       -0.8395684541
 H          6.3933476137       -0.0544521537       -1.5427414803
 H          4.8403269858        0.6265876975       -1.0833104632
 C          6.0767036644        0.0596155661        0.5911212622
 H          6.1784506470       -0.9012751270        1.0966671572
 H          7.0715324707        0.5075876694        0.5434690646
 C          5.2087883403        0.9894363674        1.4408854953
 H          5.0294290026        1.9211406261        0.8983477611
 H          5.7658477552        1.2416178904        2.3472009321
 C          3.8540447520        0.4190181294        1.8791313338
 H          4.0009270680       -0.5537522092        2.3522572854
 H          3.4306590034        1.1030245930        2.6203434706
 H          5.6777596556       -2.3023649396       -0.9728441564
 H          4.5551369510       -1.5468761201       -2.1112263865
 H          4.1255533818       -2.0391172552        0.8628364531
 H          3.2349438263       -2.7232204377       -0.5128496552
 O          1.8366113532       -0.7899811212       -1.0614824563
 C          0.8812714088        0.2051160119       -1.2470597381
 O          0.0984184057       -0.0338849622       -2.1832973993
 H         -1.5104607307        0.1911394219       -0.2075786165
 C         -1.8939840700        0.9967143555        0.3988935114
 C         -1.2724452543        2.2364846358        0.3597427631
 C         -1.7786984736        3.2656976096        1.1452861722
 C         -2.8914718777        3.0591112197        1.9408155373
 C         -3.5202517169        1.8276784234        1.9629776231
 C         -3.0152748721        0.7880436908        1.1889411516
 N         -3.6041616997       -0.4801741823        1.2277508866
 S         -3.5044215275       -1.5313422405       -0.0663300599
 O         -3.6601843469       -0.8442281272       -1.3259457578
 O         -4.5089155497       -2.5346298125        0.2247816620
 C         -1.9013891971       -2.2870782783        0.0856099978
 C         -1.4204763986       -2.5606162691        1.3510661961
 C         -0.2080286663       -3.2174571985        1.4780952818
 C          0.4925617149       -3.5985347587        0.3440484388
 C         -0.0021681437       -3.3139108732       -0.9184016325
 C         -1.2122476792       -2.6513058617       -1.0527944025
 H         -1.6168020128       -2.3905750733       -2.0177498078
 H          0.5495246886       -3.5939600169       -1.8015208667
 H          1.4310658800       -4.1203410743        0.4477185544
 H          0.1863516341       -3.4317999566        2.4584414033
 H         -1.9933541479       -2.2533001624        2.2102415460
 H         -4.4763008010       -0.5503095397        1.7298501595
 H         -4.3910415263        1.6650416749        2.5793171890
 H         -3.2762664332        3.8650642947        2.5469173300
 H         -1.2863465718        4.2269367712        1.1383377274
 C         -0.0698725655        2.4585964470       -0.5219502205
 H          0.4634050195        3.3382849363       -0.1253010179
 C         -0.4585925424        2.7807720632       -1.9573364065
 C         -1.7474039279        2.3504178318       -2.5834573314
 C         -1.5278880830        3.7930594682       -2.2462577921
 H         -1.3712769937        4.4936805728       -3.0525515147
 H         -2.0741109028        4.1972969013       -1.4074910612
 H         -1.7194755340        2.0451350087       -3.6185728736
 H         -2.4423431483        1.7721240952       -1.9936015976
 H          0.4072959155        2.7892705746       -2.6125689244
 O          1.8904966488        2.3890433466        1.4577646273
