  62
        -98.93893188
 C         -1.9098745569       -0.6806564396       -0.5658258669
 C         -2.7574581775       -0.9589258034        0.5387368044
 C         -3.8326800664        0.0030960929        0.8055644862
 C         -3.9356856090        1.0963805094        0.0289218939
 C         -5.0024687890        2.1442895914        0.1587118056
 C         -6.2156918918        1.8153282830       -0.7223193238
 C         -6.7198230266        0.3804562325       -0.5675161035
 H         -7.5938012752        0.2716129040       -1.2133341966
 H         -5.9566333326       -0.3063730934       -0.9405077385
 C         -7.0933585749       -0.0098032379        0.8693773750
 H         -7.2332744738        0.8880562032        1.4723721321
 H         -8.0477542519       -0.5401485801        0.8509426238
 C         -6.0850324273       -0.9308563181        1.5588457980
 H         -5.8701859802       -1.7865694521        0.9139597041
 H         -6.5461113401       -1.3165162494        2.4719345297
 C         -4.7534024192       -0.2828074850        1.9583795790
 H         -4.9441009069        0.6260222864        2.5330057931
 H         -4.2178997726       -0.9891626803        2.5994536183
 H         -7.0183164401        2.5139537754       -0.4790171152
 H         -5.9357859027        1.9694426879       -1.7670757104
 H         -5.3059889875        2.2173933967        1.2013992727
 H         -4.5835715509        3.1016361998       -0.1564082061
 O         -3.0946884163        1.3460884848       -1.0042728574
 C         -2.0626849887        0.4699497687       -1.3404435826
 O         -1.4049579265        0.8439424276       -2.3268305257
 H          0.4285684221        0.6685290478       -0.1734927337
 C          0.8286690806       -0.1668382796        0.3825870305
 C          0.3225351350       -1.4444956009        0.1842005087
 C          0.8513501954       -2.4958159004        0.9251643132
 C          1.8585053705       -2.2762764385        1.8473605320
 C          2.3720158548       -1.0052371795        2.0298648865
 C          1.8542285987        0.0519874600        1.2909559532
 N          2.3729545127        1.3598611549        1.4317236378
 S          3.2914184181        1.9056483083        0.1394397764
 O          3.8056474760        3.1945124525        0.5457855043
 O          2.5052848294        1.8645383506       -1.0642500892
 C          4.6293662179        0.7272915226        0.0443646462
 C          5.8107543395        0.9986550099        0.7068005823
 C          6.8188788073        0.0480636625        0.6965804351
 C          6.6243563246       -1.1564811403        0.0375552506
 C          5.4312437369       -1.4153509052       -0.6196828561
 C          4.4208581192       -0.4666035937       -0.6173612137
 H          3.4830748137       -0.6300446813       -1.1234640655
 H          5.2798668817       -2.3510491518       -1.1331416125
 H          7.4073703976       -1.8980654862        0.0340707929
 H          7.7488758275        0.2479959346        1.2039113249
 H          5.9180052425        1.9500744903        1.2024558290
 H          2.9016577963        1.4904090526        2.2841552565
 H          3.1614661174       -0.8267531273        2.7446342693
 H          2.2499385028       -3.1002119490        2.4235546039
 H          0.4487267846       -3.4883639800        0.7881774574
 C         -0.7961914446       -1.6874007707       -0.7984088401
 H         -1.2369805954       -2.6653116725       -0.5424373895
 C         -0.3074583254       -1.7864125685       -2.2338646531
 C          0.8824993371       -1.0475423929       -2.7585977519
 C          0.9597915763       -2.5280388778       -2.5469116883
 H          0.9809330438       -3.1703249935       -3.4141731300
 H          1.5443239075       -2.8871660236       -1.7129937846
 H          0.8216183247       -0.6652786525       -3.7663602073
 H          1.4101138784       -0.3806792281       -2.0942768487
 H         -1.1325558989       -1.9096846826       -2.9282569223
 O         -2.6177678674       -1.9792626131        1.2654674084
