  62
        -98.94200209
 C         -1.2344453206       -1.1128818495        0.7265186130
 C         -1.4207548641       -0.4266182917       -0.5006488745
 C         -2.3017049030        0.7506088608       -0.4362157510
 C         -2.7257319750        1.2097667347        0.7532326184
 C         -3.6005944050        2.4120914154        0.9809674625
 C         -5.1017560729        2.1162232520        0.8570128540
 C         -5.5990747616        1.8663031003       -0.5674908931
 H         -6.6902301787        1.8840426018       -0.5329731062
 H         -5.2816247153        2.6869407639       -1.2115922382
 C         -5.1464268101        0.5294381969       -1.1717145497
 H         -4.8027512421       -0.1333022712       -0.3739869711
 H         -5.9979789524        0.0382318383       -1.6479219385
 C         -4.0457056117        0.6504353228       -2.2259614419
 H         -4.4266214198        1.1992030528       -3.0900871947
 H         -3.7803653997       -0.3561961674       -2.5596498030
 C         -2.7682182935        1.3432168867       -1.7315327403
 H         -1.9834198814        1.1826584744       -2.4735087218
 H         -2.9447160698        2.4132508173       -1.6269278731
 H         -5.3409859324        1.2530988211        1.4828536851
 H         -5.6392883977        2.9772638246        1.2609973397
 H         -3.4009880681        2.7558010680        1.9981301840
 H         -3.3283600208        3.2058997599        0.2851389669
 O         -2.3733426704        0.6205880672        1.9275560983
 C         -1.6721946533       -0.5734906771        1.9390993005
 O         -1.4829887316       -1.0404467286        3.0815559893
 H          1.5816753687       -1.0598069432        1.7623578916
 C          1.8282721527       -1.5016729347        0.8040893905
 C          0.8734310076       -2.2726739755        0.1527797737
 C          1.1932692805       -2.8256357421       -1.0794510617
 C          2.4366891303       -2.6009507584       -1.6447897874
 C          3.3870570795       -1.8359337952       -0.9921209535
 C          3.0775974564       -1.2861071758        0.2446196115
 N          4.0418587546       -0.5001321219        0.9184450098
 S          4.4181832506        0.9551497529        0.1790670171
 O          5.1224258767        0.6875353420       -1.0479138125
 O          5.1321718106        1.7230704836        1.1738790776
 C          2.8386200385        1.7065376463       -0.1652721680
 C          2.2319010112        1.4805871836       -1.3837346105
 C          0.9787145896        2.0224927206       -1.6164283316
 C          0.3547119373        2.7679556176       -0.6288319943
 C          0.9728600301        2.9774066424        0.5941511081
 C          2.2267361846        2.4394764041        0.8320409697
 H          2.7462723225        2.5889079118        1.7654278523
 H          0.4800795104        3.5535853568        1.3611616501
 H         -0.6208725524        3.1878870168       -0.8127814873
 H          0.4900131416        1.8501560264       -2.5612840358
 H          2.7473883535        0.8941127023       -2.1264188863
 H          3.7935228367       -0.3198170051        1.8816669931
 H          4.3547815967       -1.6407279119       -1.4252195048
 H          2.6691200127       -3.0263332764       -2.6092386862
 H          0.4559559082       -3.4069837924       -1.6081585151
 C         -0.4725978967       -2.4253222439        0.8127637198
 H         -0.2994851372       -2.5791186149        1.8901937049
 C         -1.2489392144       -3.6399833472        0.3266086105
 C         -2.7172787892       -3.7591799661        0.6058121293
 C         -2.2324414699       -3.5979374445       -0.8019097753
 H         -2.2849989836       -4.4527803484       -1.4604159253
 H         -2.3949453605       -2.6559201574       -1.2992765274
 H         -3.1100081484       -4.7165378280        0.9135615070
 H         -3.2002527253       -2.9163114975        1.0797738664
 H         -0.6654519225       -4.5504220894        0.4259733895
 O         -0.9068343173       -0.7658842481       -1.5942158054
