  62
        -98.93782761
 C         -1.3384201808       -1.5091906633       -0.5794253361
 C         -2.5585424150       -1.5087708547        0.1386231256
 C         -3.5710596712       -0.5020809820       -0.2303932547
 C         -3.2865782725        0.3605949802       -1.2233891671
 C         -4.1269765167        1.4950493592       -1.7473820872
 C         -4.1175649959        2.7141947764       -0.8125320373
 C         -4.3067088684        2.3887583803        0.6666449219
 H         -3.5060620927        1.7198281029        0.9890677952
 H         -4.1898582209        3.3202376966        1.2273378453
 C         -5.6605965524        1.7855644067        1.0348645160
 H         -5.6922000229        1.7067890322        2.1245464750
 H         -6.4525678277        2.4726173488        0.7286672865
 C         -5.9612464366        0.4025346446        0.4519068677
 H         -6.8155341462       -0.0026630882        1.0019872730
 H         -6.2688259784        0.4717786629       -0.5880566920
 C         -4.8288670324       -0.6088019392        0.5978988545
 H         -4.5014772346       -0.6337435200        1.6436659518
 H         -5.2272523720       -1.6109555933        0.3981815577
 H         -4.8959430351        3.4062629634       -1.1392875976
 H         -3.1513640884        3.2146729566       -0.9192153512
 H         -3.6926032729        1.7899835270       -2.7053260250
 H         -5.1423017320        1.1570421090       -1.9327345692
 O         -2.1025604474        0.3228227294       -1.8941222163
 C         -1.0947374337       -0.5786936234       -1.5900894021
 O         -0.0788846156       -0.4454276815       -2.2968112671
 H          0.6262778327       -0.0145359888        0.2097845186
 C          0.9351828508       -0.6737975447        1.0037893112
 C          0.5367412815       -2.0024602650        0.9873081316
 C          0.9189378548       -2.8276981299        2.0390105215
 C          1.6900855215       -2.3310619998        3.0750431845
 C          2.0846850040       -1.0058103234        3.0878701143
 C          1.6918554457       -0.1657486021        2.0498322595
 N          2.0278839203        1.1896201544        2.0765864211
 S          2.0517298540        2.1988890305        0.7506653340
 O          2.5903804720        3.4336745884        1.2823155556
 O          0.7428934567        2.2857990154        0.1546858783
 C          3.2482093874        1.4900863340       -0.3649423363
 C          4.5791747867        1.6260198829       -0.0138464721
 C          5.5524954609        1.0865088614       -0.8367230481
 C          5.1809178775        0.4240055013       -1.9976950184
 C          3.8436620670        0.3005827899       -2.3367206301
 C          2.8610595106        0.8335415514       -1.5142271103
 H          1.8153855898        0.7318081668       -1.7612981790
 H          3.5466097973       -0.2112513865       -3.2379468989
 H          5.9365971224        0.0036682835       -2.6423460626
 H          6.5934939938        1.1849536319       -0.5744912291
 H          4.8249266325        2.1684612632        0.8845296393
 H          2.6651382154        1.4759935138        2.8029238633
 H          2.6737873345       -0.6143931751        3.9027455138
 H          1.9816703032       -2.9809456260        3.8859394980
 H          0.5893641760       -3.8560506217        2.0531524749
 C         -0.3033638117       -2.5324456245       -0.1495017626
 H         -0.8880937257       -3.3781720457        0.2480546244
 C          0.5409091844       -3.0615050651       -1.3000693667
 C          1.9742864818       -2.6835438208       -1.5029755071
 C          1.6254512581       -4.0680868304       -1.0519651547
 H          1.7373453954       -4.8833796299       -1.7504355851
 H          1.8443711372       -4.3284323023       -0.0281769126
 H          2.3119436501       -2.5333386668       -2.5161954497
 H          2.4264440446       -2.0091504663       -0.7919309440
 H         -0.0503205967       -3.1973403959       -2.1998259410
 O         -2.8007253091       -2.3302554203        1.0658684235
