  62
        -98.94516531
 C          1.0510235950        1.3116738950        0.4662582691
 C          1.5518137461        0.7092584725       -0.7157840511
 C          2.3593928227       -0.5053556418       -0.5187948376
 C          2.5841655719       -0.9786599013        0.7190522400
 C          3.3598931605       -2.2189985194        1.0708566154
 C          4.8798618796       -2.0119300146        1.1241258389
 C          5.5638248478       -1.8382937670       -0.2326117458
 H          6.6387138511       -1.9269156004       -0.0628084433
 H          5.2704599415       -2.6543795697       -0.8938075573
 C          5.2832533812       -0.4934387003       -0.9177249558
 H          4.8936545811        0.2157432293       -0.1839000283
 H          6.2179209257       -0.0774696828       -1.3004507564
 C          4.3085193056       -0.5718674123       -2.0931971156
 H          4.7458707566       -1.1717934646       -2.8945548755
 H          4.1499988458        0.4388615148       -2.4778371666
 C          2.9386166796       -1.1614892449       -1.7350051325
 H          2.2510506042       -0.9821960577       -2.5663988689
 H          3.0191919207       -2.2383506588       -1.5835540601
 H          5.0922014087       -1.1436651362        1.7520176772
 H          5.3101296780       -2.8891782549        1.6126615695
 H          3.0212416806       -2.5278727597        2.0621551244
 H          3.1224474574       -3.0123956126        0.3611438945
 O          2.0936639016       -0.3680246077        1.8300382827
 C          1.3260094834        0.7815974029        1.7302496451
 O          0.9493619802        1.2343105280        2.8294104912
 O          1.3479197454        1.1343279734       -1.8828953850
 C          0.1559486079        2.5389865333        0.4764143881
 C         -1.2995905572        2.1576050608        0.3290815754
 C         -2.2693594089        2.7620304649        1.1214355830
 C         -3.6034014423        2.4250478629        0.9842136190
 C         -3.9931670113        1.4609534596        0.0720399889
 C         -3.0317704775        0.8469437422       -0.7215432409
 C         -1.6973203323        1.2081339724       -0.6007819212
 H         -0.9719370687        0.7362510851       -1.2441559861
 N         -3.3902669737       -0.1545171115       -1.6423856323
 S         -2.5288500790       -1.5908580089       -1.6119756961
 O         -1.2490655748       -1.4337642264       -2.2498657727
 O         -3.4237833447       -2.5565408568       -2.2143152965
 C         -2.3311761004       -1.9459692965        0.1244684018
 C         -3.4318877522       -2.3958004974        0.8277197675
 C         -3.3139801493       -2.6114939769        2.1906508641
 C         -2.1060614834       -2.3646426841        2.8258666202
 C         -1.0095848884       -1.9171501311        2.1056750606
 C         -1.1208463916       -1.7049448277        0.7404463741
 H         -0.2878917010       -1.3565101608        0.1488140138
 H         -0.0722057503       -1.7146690938        2.6000843302
 H         -2.0136378770       -2.5220049620        3.8888343707
 H         -4.1617431509       -2.9650540609        2.7549134385
 H         -4.3499791456       -2.5837571344        0.2949969864
 H         -4.3823557322       -0.3433032096       -1.6772722242
 H         -5.0315093706        1.1839573383       -0.0272189267
 H         -4.3454875248        2.9053939170        1.6030433223
 H         -1.9691225274        3.4940639674        1.8559519830
 H          0.2793319466        2.9911674810        1.4705485551
 C          0.5224208698        3.5779354045       -0.5663495814
 C          0.1943258876        5.0176495816       -0.3149872814
 C          1.6195843272        4.5555676704       -0.2766149737
 H          2.2813369578        4.8383468820       -1.0813541563
 H          2.1076292510        4.4868654163        0.6850506148
 H         -0.1278579286        5.6230230778       -1.1481684948
 H         -0.2781210988        5.2712443143        0.6216445935
 H          0.4391419772        3.2107308158       -1.5809087100
