  62
        -98.94225277
 C         -1.8850310020       -1.2962144753       -0.0480634618
 C         -3.0496311105       -1.1943736594        0.7581859441
 C         -4.2202156962       -0.5637706072        0.1403503906
 C         -4.1526106552       -0.1432776631       -1.1353618179
 C         -5.2682362223        0.4895042787       -1.9219240019
 C         -5.4179129393        1.9994813994       -1.6914063353
 C         -5.9966569865        2.3956675183       -0.3325194281
 H         -6.2501672555        3.4561593838       -0.3893111137
 H         -6.9239841527        1.8484301092       -0.1603109778
 C         -5.0417108827        2.1796763160        0.8500078476
 H         -5.0487699093        3.0646840410        1.4903382652
 H         -4.0206164545        2.0641784728        0.4785379074
 C         -5.3856124630        0.9795298947        1.7324679736
 H         -4.6241586146        0.8995826564        2.5125771634
 H         -6.3494081611        1.1466936010        2.2184549540
 C         -5.4410960072       -0.3592601462        0.9850697955
 H         -5.4724780050       -1.1634907290        1.7241644563
 H         -6.3410009450       -0.4110557745        0.3724268294
 H         -4.4417677362        2.4722884816       -1.8230917426
 H         -6.0805080362        2.3837184120       -2.4704304569
 H         -6.2091308746       -0.0098901066       -1.6889190560
 H         -5.0380278302        0.3236310744       -2.9766454546
 O         -3.0266571204       -0.2714825498       -1.8827305327
 C         -1.8605552981       -0.8220786529       -1.3602359792
 O         -0.9113836771       -0.8197801619       -2.1667045111
 O         -3.1083731702       -1.6241616023        1.9409562975
 C         -0.6752593908       -1.9534843078        0.5934211209
 C          0.2760664167       -0.9364939417        1.1692162180
 C          0.7458687176       -1.0562032409        2.4717880679
 C          1.6360762355       -0.1305407859        2.9889524403
 C          2.0789515755        0.9288886401        2.2176929733
 C          1.6163995093        1.0563254761        0.9139820285
 C          0.7214986822        0.1294759643        0.3991684291
 H          0.3681181490        0.2330940308       -0.6162988336
 N          2.0688328286        2.1245316087        0.1120836799
 S          3.7261956524        2.2395573870       -0.1160284945
 O          4.3374824302        2.6967526701        1.1064055963
 O          3.8991642482        3.0876334922       -1.2728700578
 C          4.2488912766        0.5740767678       -0.4763658606
 C          4.6854104748       -0.2415501057        0.5484733054
 C          5.0112376258       -1.5576429672        0.2621627934
 C          4.8981623511       -2.0319243167       -1.0353799355
 C          4.4645095792       -1.1979113156       -2.0546356229
 C          4.1284935844        0.1163747629       -1.7735167088
 H          3.7856220755        0.7955734599       -2.5378664707
 H          4.3768525084       -1.5681255550       -3.0633408542
 H          5.1473304918       -3.0577958932       -1.2546706073
 H          5.3483545356       -2.2088500333        1.0522019369
 H          4.7679277787        0.1670563598        1.5418345509
 H          1.6019321341        2.1642340802       -0.7831591436
 H          2.7753406556        1.6572482204        2.6007419829
 H          1.9878788653       -0.2334601500        4.0040453057
 H          0.3982614289       -1.8750729726        3.0843027338
 H         -1.0915757413       -2.5265524724        1.4369266136
 C          0.0194506941       -2.9502964637       -0.3254808270
 C          1.3395011685       -2.7001979687       -0.9835425290
 C          1.2429509190       -3.6821501811        0.1425008187
 H          1.3301413816       -4.7353147997       -0.0759509705
 H          1.6616006410       -3.3884289785        1.0930540780
 H          1.4713102480       -3.0672681862       -1.9895508666
 H          1.8357736987       -1.7606439232       -0.7998435861
 H         -0.6996984286       -3.5238279570       -0.9024304917
