  62
        -98.94416830
 C         -2.2495125043       -0.8632284346        0.4053835257
 C         -2.4552864286       -0.0083988399       -0.7048046397
 C         -3.3039271492        1.1637608255       -0.4540056061
 C         -3.7890763183        1.3885229892        0.7805364823
 C         -4.6487183092        2.5514461253        1.1964266724
 C         -6.1439228132        2.3559699019        0.9097920538
 C         -6.5410763702        2.4448345377       -0.5642944134
 H         -7.6304491037        2.5089412933       -0.5985288017
 H         -6.1473137877        3.3681668736       -0.9902420414
 C         -6.0902020329        1.2492750512       -1.4151346041
 H         -6.9192736394        0.9168870112       -2.0438362515
 H         -5.8303371622        0.4138669847       -0.7608743227
 C         -4.9081369525        1.5392495773       -2.3401595068
 H         -4.6498902532        0.6164819442       -2.8656392275
 H         -5.2002138587        2.2814164141       -3.0863072622
 C         -3.6502220688        2.0409537673       -1.6190081364
 H         -2.8135689029        2.0037176321       -2.3209327810
 H         -3.7890231862        3.0715273636       -1.2929947850
 H         -6.4532463313        1.3889980771        1.3132879290
 H         -6.6838913366        3.1321014738        1.4570664571
 H         -4.2986945376        3.4602437327        0.7059324338
 H         -4.5170664531        2.6654376181        2.2747215327
 O         -3.5246170067        0.5676399890        1.8332552283
 C         -2.7669202910       -0.5813939589        1.6685618160
 O         -2.6159177060       -1.2514927254        2.7119130608
 O         -1.9567581610       -0.2086211180       -1.8417001837
 C         -1.4148486940       -2.1201047960        0.2444238872
 C         -0.0142519002       -1.7694147582       -0.1987727157
 C          0.6705048118       -2.4686173213       -1.1838043302
 C          1.9620491192       -2.1091791562       -1.5291750280
 C          2.5979485184       -1.0530638013       -0.9037005898
 C          1.9279049112       -0.3553357298        0.0929943406
 C          0.6369085998       -0.7213214339        0.4403733935
 H          0.1176871637       -0.1784044470        1.2219347614
 N          2.5631866875        0.7258309578        0.7309610942
 S          4.0857959575        0.4620795952        1.3903372326
 O          4.2542125848       -0.9139783414        1.7973121528
 O          4.2272404301        1.4607643919        2.4276709177
 C          5.2030713683        0.8474552335        0.0589762961
 C          5.1019088014        2.0899033544       -0.5357447391
 C          5.9708980164        2.4105939003       -1.5663358551
 C          6.9227451217        1.4902508226       -1.9798719260
 C          7.0134218038        0.2483318229       -1.3702172266
 C          6.1464055514       -0.0793941497       -0.3392857192
 H          6.1752030993       -1.0345175281        0.1603927331
 H          7.7540515166       -0.4654532073       -1.6932527421
 H          7.5978024076        1.7429094654       -2.7822141233
 H          5.9028976715        3.3751747038       -2.0431379520
 H          4.3503528350        2.7763954393       -0.1828547507
 H          1.9720497236        1.2056080797        1.3944161462
 H          3.6005021540       -0.7658424732       -1.1753824197
 H          2.4793915641       -2.6578426007       -2.3012533473
 H          0.1918954128       -3.2940444389       -1.6844275289
 H         -1.3462986352       -2.5708071222        1.2461610081
 C         -2.1159193372       -3.0933901135       -0.6809282506
 C         -1.9412746601       -4.5704335464       -0.5005365665
 C         -3.2414130993       -3.9196992170       -0.1378350966
 H         -4.1021271593       -4.0966049036       -0.7651822135
 H         -3.4819610509       -3.8010948002        0.9091325659
 H         -1.9126896638       -5.1979624724       -1.3785284401
 H         -1.3017799071       -4.9045214402        0.3026530448
 H         -2.2197771141       -2.7065133487       -1.6880139546
