  62
        -98.94291143
 C          0.7941498406        1.3969196909       -0.0928261190
 C          1.5404682704        0.7800555904        0.9442702809
 C          2.5674901206       -0.1796649293        0.5286575005
 C          2.6983352809       -0.4849206785       -0.7743197896
 C          3.6992659912       -1.4421124580       -1.3640867699
 C          5.0754677412       -0.8129923477       -1.6227749292
 C          5.9089357009       -0.5398750884       -0.3696613388
 H          5.9630606408       -1.4465262187        0.2336288206
 H          6.9225981209       -0.3106718681       -0.7043245784
 C          5.3991070405        0.6246214411        0.4911921217
 H          6.2393807904        1.2637597610        0.7717922123
 H          4.7135895506        1.2391702513       -0.0971318181
 C          4.6998399402        0.2021160402        1.7836357913
 H          5.4149948301       -0.2999434101        2.4387854012
 H          4.3514134700        1.1040082999        2.2929237418
 C          3.4919995504       -0.7217048198        1.5763668104
 H          2.9339978402       -0.7732586504        2.5138100503
 H          3.8293009106       -1.7227006696        1.3096431599
 H          5.6339056714       -1.5008931973       -2.2620246295
 H          4.9358585912        0.1167990226       -2.1792849587
 H          3.8185750011       -2.3077008384       -0.7116466504
 H          3.2871972115       -1.7775976875       -2.3184515702
 O          1.8977118611        0.0514323620       -1.7316139495
 C          0.9516475010        1.0302077018       -1.4305916091
 O          0.3566401412        1.4649522723       -2.4323615190
 O          1.3681075901        1.0431865896        2.1637105110
 C         -0.1867747296        2.4698986106        0.3430191414
 C         -1.5144821097        1.8807529202        0.7447228808
 C         -2.1743674700        2.3417011694        1.8789301409
 C         -3.4070866100        1.8263809091        2.2356496203
 C         -3.9946481998        0.8289634395        1.4791287895
 C         -3.3362298894        0.3507401302        0.3516057694
 C         -2.1060692994        0.8802383606       -0.0133258900
 H         -1.6154130291        0.5140856912       -0.9030522201
 N         -3.9015866091       -0.6721449093       -0.4233872614
 S         -2.9140551688       -1.8294743988       -1.1073820818
 O         -2.3241724186       -1.3409384080       -2.3270134814
 O         -3.7761171587       -2.9852950088       -1.2533269827
 C         -1.6476561691       -2.1945776794        0.0962245183
 C         -0.3588758290       -2.4062685690       -0.3464823915
 C          0.6148541508       -2.7718197095        0.5688526885
 C          0.2904812605       -2.8961542403        1.9097644783
 C         -1.0072544596       -2.6726115507        2.3413109681
 C         -1.9903465094       -2.3316751403        1.4270400281
 H         -3.0095800095       -2.1722034306        1.7383108079
 H         -1.2567228099       -2.7670464114        3.3857638680
 H          1.0544734904       -3.1691326407        2.6201073384
 H          1.6206804709       -2.9557690892        0.2298939286
 H         -0.1408161987       -2.2732574284       -1.3951149914
 H         -4.7520719492       -1.0721724096       -0.0545805718
 H         -4.9542173598        0.4196627392        1.7554238790
 H         -3.9112665503        2.1965292385        3.1149217903
 H         -1.7076851902        3.1018137791        2.4875162514
 H          0.2581185801        2.9050188001        1.2533068718
 C         -0.3403421395        3.5997575912       -0.6655420579
 C         -1.5306422093        3.7473360116       -1.5596923281
 C         -1.3246592497        4.7069498109       -0.4285402575
 H         -1.0253916997        5.7184600511       -0.6575944168
 H         -1.9823371999        4.6201554203        0.4226408123
 H         -1.3572492491        4.0797275022       -2.5717445379
 H         -2.3199012792        3.0157310715       -1.4796017788
 H          0.6149141006        3.8844067815       -1.0954382875
