  62
        -98.94911084
 C          1.2699801869        1.5400644530        0.5463818050
 C          2.2210726822        1.2083959729       -0.4488937315
 C          3.2029076918        0.1841323558       -0.0737732429
 C          3.1588348756       -0.3725424591        1.1499418519
 C          4.0752785857       -1.4470462594        1.6676012548
 C          3.6428726544       -2.8630715936        1.2615707536
 C          3.8915498669       -3.2239700526       -0.2036384705
 H          4.9241356722       -2.9904625634       -0.4668833532
 H          3.7677784687       -4.3053828461       -0.2904545522
 C          2.9367064447       -2.5422029612       -1.1940637255
 H          2.0516231651       -2.1834793030       -0.6615452724
 H          2.5816507035       -3.2783865200       -1.9198674669
 C          3.5579403515       -1.3912726037       -1.9868779374
 H          2.7771948453       -0.9477805101       -2.6104313754
 H          4.3362575545       -1.7826035645       -2.6465907175
 C          4.1657722657       -0.2769177267       -1.1254082559
 H          5.0956109680       -0.6169437596       -0.6701479761
 H          4.3821445156        0.5753685878       -1.7745073687
 H          4.1964541288       -3.5672219249        1.8875630684
 H          2.5789347316       -2.9821999534        1.4833859788
 H          5.0943129117       -1.2622246486        1.3266699204
 H          4.0535895571       -1.3789268877        2.7574620848
 O          2.2475889928       -0.0049222483        2.0889183470
 C          1.2552048264        0.9156664060        1.7926469368
 O          0.4295882506        1.0954106680        2.7129821046
 O          2.2445759704        1.7283901360       -1.5947675415
 C          0.1301706042        2.4852789344        0.2160044234
 C         -0.7205165045        1.8874679382       -0.8819938085
 C         -1.3632307586        2.6425581373       -1.8552238679
 C         -2.1387622678        2.0215998237       -2.8198479856
 C         -2.3062913264        0.6480538379       -2.8293724623
 C         -1.6708991873       -0.1149772701       -1.8565375811
 C         -0.8917180760        0.5110493344       -0.8986776629
 H         -0.3839229855       -0.0959170664       -0.1665970656
 N         -1.7914421148       -1.5117657538       -1.8184557856
 S         -1.8045882754       -2.3059382268       -0.3469990438
 O         -0.4895485774       -2.3150553584        0.2426365565
 O         -2.3649030790       -3.6049733876       -0.6540590134
 C         -2.9596984915       -1.3798102123        0.6485385715
 C         -4.2953388442       -1.4723661551        0.3036343696
 C         -5.2275640978       -0.7319775935        1.0102137459
 C         -4.8105726792        0.0928217801        2.0446011565
 C         -3.4691431567        0.1707851269        2.3823185228
 C         -2.5308561244       -0.5712874396        1.6805353326
 H         -1.4825176043       -0.5181219514        1.9310369208
 H         -3.1335881067        0.8079143186        3.1852505558
 H         -5.5336556255        0.6757078526        2.5929184502
 H         -6.2723158823       -0.7965994423        0.7525948611
 H         -4.5796774172       -2.1343610350       -0.4981179557
 H         -2.4492663083       -1.9084983054       -2.4724490984
 H         -2.9097207385        0.1695103686       -3.5851298500
 H         -2.6250524143        2.6183876746       -3.5764385082
 H         -1.2489242267        3.7142546636       -1.8640722826
 H         -0.4902923732        2.5436061348        1.1234695685
 C          0.6456144828        3.8710692822       -0.1119469029
 C         -0.1671847024        5.0824299436        0.2309386703
 C          1.0720735400        4.7663914997        1.0113790639
 H          1.9450632818        5.3864321828        0.8740212845
 H          0.9623349370        4.3851681738        2.0165568786
 H         -0.1437259386        5.9259264733       -0.4425068646
 H         -1.1200419567        4.9272645309        0.7141626815
 H          1.2383331781        3.8889588931       -1.0188051437
