  62
        -98.93314794
 C         -2.5040847736       -1.0349281177        0.3985281540
 C         -2.6327434085        0.1658435510        1.1339925050
 C         -3.6090894279        1.1568750506        0.6423899417
 C         -4.2897271311        0.8855688694       -0.4869800813
 C         -5.3116777660        1.7375944039       -1.1927634957
 C         -4.6838055335        2.9062871662       -1.9675014722
 C         -3.6076238542        3.6745726342       -1.2056803292
 H         -2.8074348152        2.9865903260       -0.9267366415
 H         -3.1781511930        4.4103966393       -1.8906266443
 C         -4.0960278295        4.4191515848        0.0347631715
 H         -3.2553591766        5.0079171723        0.4105027868
 H         -4.8860231382        5.1160639091       -0.2534681681
 C         -4.6107066458        3.5452888626        1.1812288692
 H         -5.6210882974        3.1949643322        0.9882368937
 H         -4.6672014369        4.1778307262        2.0719023871
 C         -3.7077857590        2.3688101159        1.5378146778
 H         -4.0088163622        1.9825451043        2.5190561495
 H         -2.6824561052        2.7308995634        1.6748463936
 H         -5.4812410735        3.5893320789       -2.2652526178
 H         -4.2272992435        2.5039128721       -2.8752106608
 H         -5.8228122015        1.0847409890       -1.9038565889
 H         -6.0515656673        2.0974042256       -0.4838629057
 O         -4.0938799908       -0.2643286164       -1.1930279311
 C         -3.2111207961       -1.2473693364       -0.7846866889
 O         -3.1592620177       -2.2329825504       -1.5436877100
 O         -1.9581441000        0.4090185182        2.1724174756
 C         -1.5339345548       -2.0892372862        0.9051690349
 C         -0.3289057150       -2.1219928087       -0.0028234630
 C         -0.1131455634       -3.1117103883       -0.9521760134
 C          1.0004099501       -3.0592885116       -1.7733376641
 C          1.9181588802       -2.0311327901       -1.6632224708
 C          1.7152365247       -1.0392805486       -0.7115117948
 C          0.5990654638       -1.0930866829        0.1102984466
 H          0.4320951294       -0.3192163489        0.8490769849
 N          2.6408772103        0.0151635827       -0.5964194554
 S          4.2775901640       -0.4081220690       -0.6383972856
 O          4.6874824510       -0.4996976304       -2.0175628883
 O          4.5045820132       -1.5876093459        0.1659902681
 C          5.0318031215        1.0159585382        0.1216486993
 C          5.2977914701        2.1274953302       -0.6552732829
 C          5.8683637393        3.2400799280       -0.0576498025
 C          6.1606903217        3.2232410080        1.2981682793
 C          5.8882392967        2.0999994783        2.0645881559
 C          5.3166760200        0.9842246346        1.4736283561
 H          5.0973136121        0.0858537271        2.0282827755
 H          6.1193055547        2.0885037558        3.1176251662
 H          6.6069630636        4.0896357425        1.7602734518
 H          6.0844154669        4.1144371871       -0.6501058692
 H          5.0627376576        2.0914638245       -1.7062213343
 H          2.4377931375        0.6120115588        0.1939230132
 H          2.7924892002       -1.9867420548       -2.2928334352
 H          1.1563292703       -3.8323036195       -2.5110184848
 H         -0.8238379560       -3.9141230769       -1.0597348618
 H         -1.2016942099       -1.7248950467        1.8874384982
 C         -2.2022312625       -3.4344352173        1.0890360964
 C         -1.5287153243       -4.4784466774        1.9269194277
 C         -2.7621370918       -3.7934394253        2.4315141439
 H         -3.6842951257       -4.3534640161        2.4712938643
 H         -2.6563924934       -3.0703695232        3.2271086303
 H         -1.6018626060       -5.5110176847        1.6218290606
 H         -0.5825011342       -4.2198754637        2.3780129624
 H         -2.7571106331       -3.7605582580        0.2181249193
