  62
        -98.93516871
 C         -1.9381481257       -1.2033021553        0.0692561645
 C         -2.7512613016       -0.6556201751        1.0902774728
 C         -3.9403163963        0.1118180846        0.6711345701
 C         -4.1628295138        0.2862384264       -0.6445735135
 C         -5.2726025232        1.0586900388       -1.3063117366
 C         -5.0553146801        2.5794730728       -1.2404420944
 C         -4.5720832897        3.1033453588        0.1096828573
 H         -4.3443686066        4.1661313272       -0.0089485510
 H         -3.6394819615        2.6018329544        0.3756581519
 C         -5.5694689415        2.9646995998        1.2575030509
 H         -6.4817813894        3.5101192933        1.0058006943
 H         -5.1259576209        3.4466330000        2.1327053913
 C         -5.9505777542        1.5343422352        1.6442482061
 H         -6.6571143373        1.1126448549        0.9344643264
 H         -6.4700501325        1.5854572903        2.6056756885
 C         -4.7693772438        0.5887492911        1.8394257125
 H         -5.1306983741       -0.3199943374        2.3364233615
 H         -4.0625219073        1.0398741819        2.5452192917
 H         -5.9892056402        3.0742005144       -1.5123510517
 H         -4.3030787364        2.8449225659       -1.9874990616
 H         -6.2290523765        0.7835405277       -0.8717065036
 H         -5.2839576963        0.7553071720       -2.3555100006
 O         -3.3221266915       -0.2121374536       -1.5942234154
 C         -2.1981288989       -0.9588638289       -1.2797269998
 O         -1.5411951287       -1.3250441121       -2.2709872119
 O         -2.4915389373       -0.7905628595        2.3170378126
 C         -0.7166796069       -1.9999739977        0.4913413295
 C          0.4990177374       -1.5166326671       -0.2588057647
 C          1.2814259082       -2.3277649167       -1.0687599556
 C          2.3729974087       -1.8032323227       -1.7397397648
 C          2.7116413637       -0.4692972721       -1.6142494022
 C          1.9430240909        0.3488199771       -0.7950075759
 C          0.8553852179       -0.1801532805       -0.1182321276
 H          0.2522919506        0.4607210269        0.5138148396
 N          2.2814464414        1.7042564109       -0.6522939233
 S          3.8927128529        2.1124084289       -0.4726867949
 O          3.8842356236        3.3669759097        0.2468670315
 O          4.5386971239        2.1314943161       -1.7613268520
 C          4.5945820019        0.8184778316        0.5355863957
 C          5.6044631266        0.0229275082        0.0344603505
 C          6.1110047455       -0.9953511083        0.8263271956
 C          5.5985649367       -1.2013450107        2.0975319554
 C          4.5861417463       -0.3908999607        2.5885582817
 C          4.0773544042        0.6294570193        1.8019739180
 H          3.2944312774        1.2807184177        2.1566236616
 H          4.1890328959       -0.5517651504        3.5780177308
 H          5.9901681317       -1.9969485338        2.7114106599
 H          6.8996173000       -1.6255549789        0.4481517729
 H          5.9722719996        0.2168172971       -0.9599075058
 H          1.6943372984        2.2135304167       -0.0093690536
 H          3.5434945362       -0.0430913639       -2.1509844559
 H          2.9637887156       -2.4419887371       -2.3782738284
 H          1.0208156053       -3.3647338282       -1.1994155469
 H         -0.5815119876       -1.7406186339        1.5550516308
 C         -0.9021030637       -3.5087911436        0.4390091831
 C         -2.2600717478       -4.1255622896        0.5863408651
 C         -1.5408594785       -4.2025306224       -0.7253142674
 H         -1.1418225400       -5.1579967817       -1.0334671211
 H         -1.8886976360       -3.5912012489       -1.5428922864
 H         -2.3545993589       -5.0241322157        1.1774371529
 H         -3.1072143981       -3.4596388195        0.6660743252
 H         -0.0851683287       -4.0318852083        0.9264632307
