  62
        -98.93877666
 C         -2.7649071953       -0.0974029092        0.0964122972
 C         -2.2666799584        0.6745135304       -0.9836796186
 C         -2.0769008955        2.1104195375       -0.7104869996
 C         -2.3772216798        2.6057494939        0.5019422066
 C         -2.2201548481        4.0411363474        0.9123024873
 C         -0.8517899932        4.3067258927        1.5524752782
 C          0.3321874190        3.7806447193        0.7406916077
 H          1.2419445017        4.0890504479        1.2610950254
 H          0.3225389755        2.6883448142        0.7405625038
 C          0.3858091778        4.2788097027       -0.7098879286
 H         -0.2262740928        5.1753746702       -0.8210174909
 H          1.4160327196        4.5554452754       -0.9441611828
 C         -0.0398027992        3.2394433286       -1.7494795062
 H          0.2805266567        3.5899284467       -2.7351252699
 H          0.4782558091        2.2958678316       -1.5533895841
 C         -1.5457555359        2.9568743567       -1.8326570539
 H         -2.0947986435        3.8992067175       -1.9003489562
 H         -1.7265332230        2.3859004082       -2.7485934037
 H         -0.7455883836        5.3842370333        1.6951186256
 H         -0.8304684593        3.8288744332        2.5345619920
 H         -2.3523741001        4.6759724309        0.0380530068
 H         -3.0007421724        4.2729274511        1.6395114507
 O         -2.8542447035        1.8356095830        1.5140216540
 C         -3.0308193325        0.4743376411        1.3429072401
 O         -3.4478105922       -0.1175184849        2.3605360416
 O         -2.0073873024        0.2196948187       -2.1277080960
 C         -2.9742629474       -1.6025312453        0.0344732845
 C         -1.7468837186       -2.3205851757        0.5395896181
 C         -1.8522014279       -3.4508523291        1.3409254302
 C         -0.7154457450       -4.1028656208        1.7874883329
 C          0.5422764423       -3.6249537833        1.4706481574
 C          0.6583928929       -2.4778940440        0.6900196459
 C         -0.4820371498       -1.8545207356        0.2091428146
 H         -0.3800828460       -0.9885691240       -0.4261729930
 N          1.9235651097       -1.9277752273        0.4323024266
 S          2.1272273856       -0.4901889407       -0.4045478636
 O          1.3673381818        0.5350005707        0.2615604764
 O          1.8959934598       -0.6748888707       -1.8207004450
 C          3.8683080728       -0.2389438986       -0.1173348483
 C          4.7839513212       -0.7140166057       -1.0370297350
 C          6.1366435461       -0.5430572557       -0.7878046681
 C          6.5491273524        0.0961325716        0.3716807910
 C          5.6187024183        0.5703090264        1.2844654168
 C          4.2649362442        0.4014564921        1.0407863902
 H          3.5045506116        0.7587697484        1.7159586274
 H          5.9421494464        1.0701317232        2.1832935227
 H          7.6021288784        0.2285106168        0.5637736347
 H          6.8619803710       -0.9075345693       -1.4972887490
 H          4.4169193442       -1.1924352018       -1.9308719515
 H          2.6661882653       -2.5956886394        0.2933812977
 H          1.4289323856       -4.1215096068        1.8322050622
 H         -0.8106026408       -4.9864656097        2.4001006893
 H         -2.8310114350       -3.8092094685        1.6242256034
 H         -3.7906541396       -1.8162789996        0.7443618042
 C         -3.4215783293       -2.1006821902       -1.3322998354
 C         -2.5055583162       -2.7985758642       -2.2872052615
 C         -3.5848332190       -3.5693739807       -1.5921301976
 H         -4.4375306967       -3.8961523514       -2.1676735479
 H         -3.2856906162       -4.2536336855       -0.8132101318
 H         -2.6105248130       -2.5722639261       -3.3371355275
 H         -1.4814123881       -2.9528047311       -1.9828920795
 H         -4.1633775542       -1.4436225971       -1.7744962220
