  62
        -98.94200470
 C         -0.6716203560       -1.3678904729        0.0162090871
 C         -1.4202720819       -0.7503565484        1.0425604718
 C         -2.4545428056        0.2133952936        0.6213493547
 C         -2.6284808465        0.4580608153       -0.6911932159
 C         -3.6420289179        1.3078326803       -1.4310583600
 C         -4.7413281846        2.0440889809       -0.6709500463
 C         -5.8613212320        1.1393495952       -0.1531335605
 H         -6.4658538879        0.8212418567       -1.0062067201
 H         -6.5035623263        1.7243443641        0.5084044123
 C         -5.4084737796       -0.1216382446        0.5788856828
 H         -4.7857351597       -0.7285103821       -0.0809818355
 H         -6.2988665231       -0.7106819737        0.8149118442
 C         -4.6542757381        0.1192485252        1.8837539967
 H         -4.4908250684       -0.8516889460        2.3596823997
 H         -5.2659044528        0.7221995394        2.5583213989
 C         -3.2845883075        0.7971985206        1.7295809796
 H         -2.7204843921        0.6280638467        2.6521260185
 H         -3.3924996593        1.8723385283        1.6088977738
 H         -5.1913590231        2.7518761793       -1.3720485843
 H         -4.3132331328        2.6318304666        0.1358860099
 H         -3.0599551785        2.0363745790       -2.0019331620
 H         -4.1048803931        0.6452387143       -2.1699578614
 O         -1.8135711986       -0.0935547055       -1.6379142883
 C         -0.8257267693       -1.0093865464       -1.3212701375
 O         -0.1767523928       -1.4230177123       -2.2990312040
 H          1.6470914279       -0.2930751857        1.1421581272
 C          2.2360792309       -0.8808824319        0.4523683747
 C          1.7134645617       -2.0651853634       -0.0542307747
 C          2.4939269645       -2.8231422153       -0.9169493436
 C          3.7607510494       -2.3940425956       -1.2724515719
 C          4.2734696618       -1.2098618220       -0.7773588189
 C          3.5039103419       -0.4497990644        0.0975922202
 N          4.0065867338        0.7440478703        0.6317465944
 S          2.9974835006        1.9656822944        1.1311544740
 O          3.8439300532        3.1411703423        1.1384590127
 O          2.3897776606        1.6342942125        2.3956025319
 C          1.7434716816        2.1689848640       -0.1218992693
 C          0.4822454705        2.5592885992        0.2783714123
 C         -0.4753658568        2.8319952943       -0.6844264377
 C         -0.1610065059        2.6918873731       -2.0267616397
 C          1.1040530934        2.2803130595       -2.4134679147
 C          2.0714966594        2.0270225614       -1.4551700482
 H          3.0649473831        1.7189601668       -1.7372595851
 H          1.3397554937        2.1576612952       -3.4581979209
 H         -0.9044153138        2.9014299213       -2.7798533240
 H         -1.4592253031        3.1511371255       -0.3802969887
 H          0.2723260934        2.6367967749        1.3336864302
 H          4.8665393964        1.0827515409        0.2277276874
 H          5.2606251643       -0.8750727162       -1.0565482589
 H          4.3555282304       -2.9887953210       -1.9487502761
 H          2.1095276736       -3.7459022559       -1.3178149228
 C          0.3236494171       -2.4555513427        0.3777182253
 H          0.3141786633       -2.5050699910        1.4767205068
 C         -0.1393332090       -3.7877525762       -0.1749079509
 C          0.2982078373       -5.0641274422        0.4771476278
 C         -1.1196954744       -4.5995010082        0.6152682625
 H         -1.8933321339       -5.1341235001        0.0846822477
 H         -1.4396828282       -4.2020416528        1.5676027888
 H          0.9426695620       -4.9873795850        1.3397684537
 H          0.4967823185       -5.9221059177       -0.1470270442
 H         -0.2578829405       -3.7757483938       -1.2525960894
 O         -1.2490901649       -1.0058911384        2.2659112916
