  62
        -98.94620037
 C          1.2170078860        1.4836889205        0.6245457595
 C          2.2402191476        1.3595627824       -0.3479685209
 C          3.2497746914        0.3245551974       -0.0843045885
 C          3.1748486778       -0.4239161501        1.0299328077
 C          4.1555761656       -1.4841961130        1.4547010591
 C          3.9316619296       -2.8615610412        0.8150864680
 C          4.2718206247       -2.9564461466       -0.6725059753
 H          5.2863163907       -2.5913083048       -0.8351294939
 H          4.2633907875       -4.0161544493       -0.9353276038
 C          3.2987527705       -2.2079252638       -1.5944750951
 H          2.3786746219       -1.9805199118       -1.0517895758
 H          3.0261900792       -2.8488251333       -2.4356053218
 C          3.8570201038       -0.9097502817       -2.1766704397
 H          4.7034356622       -1.1325641193       -2.8301599533
 H          3.0768887909       -0.4412891592       -2.7818834851
 C          4.3107479349        0.1058042640       -1.1202773560
 H          5.2377154698       -0.2251471292       -0.6523384564
 H          4.4912212445        1.0618582182       -1.6175119103
 H          2.8920504346       -3.1566033439        0.9690439377
 H          4.5604244919       -3.5733015663        1.3553661162
 H          5.1693940855       -1.1450876638        1.2383514755
 H          4.0501481375       -1.5873839200        2.5371749857
 O          2.1808094720       -0.2674939632        1.9459288777
 C          1.1802542741        0.6723152960        1.7610784780
 O          0.3289595352        0.6926867869        2.6741103380
 H         -2.1543634750        1.0793758744        0.8672811673
 C         -1.9874850827        1.2822823027       -0.1800863703
 C         -0.8809836947        2.0258333281       -0.5707744164
 C         -0.6941655079        2.2865909362       -1.9238115823
 C         -1.5967219154        1.8099419841       -2.8572217400
 C         -2.6942021284        1.0643447076       -2.4658058540
 C         -2.8907263162        0.7978799995       -1.1154945301
 N         -4.0083938640        0.0625656616       -0.6922376438
 S         -3.8962064847       -1.0194402817        0.5746899412
 O         -5.0568656394       -1.8689123068        0.4131742627
 O         -3.8010530694       -0.3137394515        1.8263686026
 C         -2.4191368856       -1.9658721202        0.2576398974
 C         -2.4452045469       -2.8643086545       -0.7923769876
 C         -1.3078335966       -3.6010975792       -1.0758870584
 C         -0.1658679365       -3.4298851401       -0.3072795686
 C         -0.1585361284       -2.5274411151        0.7438598190
 C         -1.2925196574       -1.7837144437        1.0311006754
 H         -1.3022087708       -1.0708870506        1.8412101999
 H          0.7220678812       -2.3836531448        1.3508991228
 H          0.7207477394       -4.0043628249       -0.5268347139
 H         -1.3120460716       -4.3062361637       -1.8912661879
 H         -3.3573015034       -2.9844125134       -1.3541454512
 H         -4.5814214807       -0.3005432577       -1.4397797913
 H         -3.3980143429        0.6949911226       -3.1958931848
 H         -1.4411451811        2.0185448832       -3.9047930021
 H          0.1731698478        2.8411382398       -2.2417321074
 C          0.0893666606        2.4959999586        0.4869164661
 H         -0.4399204243        2.4838383548        1.4496439161
 C          0.5980955718        3.9016963583        0.2375816200
 C         -0.3317667307        5.0569470548        0.4489689026
 C          0.8014611438        4.8222643061        1.4012181462
 H          1.6419235383        5.4998683361        1.3815660486
 H          0.5706128438        4.4432357979        2.3866236067
 H         -1.3326336528        4.8351102663        0.7886594381
 H         -0.2720294513        5.8981409032       -0.2243333460
 H          1.3115550124        3.9683135604       -0.5728332726
 O          2.3334855130        2.0726926256       -1.3794422447
