  62
        -98.94340335
 C          1.8656267198        0.2605409001       -0.2347264704
 C          2.9727205598        0.4566223298       -1.0934960805
 C          4.2843037299        0.5523296196       -0.4393831607
 C          4.3569249600        0.4700707697        0.9020169293
 C          5.6315634601        0.5052558095        1.6936098892
 C          6.1908769198       -0.9076860406        1.9110102093
 C          6.2671314695       -1.7452241807        0.6344744893
 H          6.7032436394       -2.7096771807        0.9037100294
 H          5.2541827195       -1.9394622405        0.2746519894
 C          7.0912025796       -1.1090568409       -0.4936402308
 H          7.7409125894       -1.8727006811       -0.9264790108
 H          7.7355309997       -0.3284430910       -0.0875011409
 C          6.2578841496       -0.5320751509       -1.6395101108
 H          6.9314071895       -0.3093745711       -2.4714470308
 H          5.5449018294       -1.2833097708       -1.9885717006
 C          5.4849876798        0.7538976493       -1.3205497208
 H          6.1626143100        1.4925797392       -0.8873409909
 H          5.1000681098        1.1527605293       -2.2638687808
 H          5.5475709798       -1.4283057004        2.6240028994
 H          7.1858640199       -0.8207157607        2.3513389892
 H          6.3615753401        1.1194248393        1.1698379391
 H          5.4205344602        0.9563991396        2.6646230692
 O          3.2689615900        0.2980902400        1.6953189894
 C          1.9977401400        0.1813220802        1.1519041696
 O          1.0923937600        0.0176959004        1.9904093297
 H         -2.1879718802       -0.0176940492       -0.1768721600
 C         -1.7746345200        0.9655960708       -0.0250219902
 C         -0.4395466200        1.2146444005       -0.3047236903
 C          0.0499798803        2.5041369704       -0.1125665904
 C         -0.7664378195        3.5065699706        0.3724187895
 C         -2.0974239395        3.2524959809        0.6529906697
 C         -2.6029489598        1.9761406010        0.4450296898
 N         -3.9474836698        1.6834283012        0.7189475400
 S         -4.8227079201        0.7444347213       -0.3548135299
 O         -4.3640686402        0.9201714611       -1.7128248399
 O         -6.2053799100        1.0929020316       -0.1027768498
 C         -4.5576986003       -0.9346266487        0.1734238803
 C         -4.4849792606       -1.9294948388       -0.7812202897
 C         -4.3361929508       -3.2451393188       -0.3701688696
 C         -4.2630085008       -3.5409345687        0.9821140705
 C         -4.3384618005       -2.5298572086        1.9282504804
 C         -4.4921605303       -1.2133073186        1.5242315803
 H         -4.5514479401       -0.4042591985        2.2328957202
 H         -4.2775775704       -2.7632998885        2.9791058104
 H         -4.1450490909       -4.5648250887        1.3002259705
 H         -4.2772759410       -4.0321826289       -1.1053582595
 H         -4.5340743307       -1.6538234589       -1.8225918497
 H         -4.4909593696        2.4648714414        1.0558483000
 H         -2.7385526493        4.0353130510        1.0293096597
 H         -0.3664503193        4.4977081506        0.5260842694
 H          1.0867708403        2.7098494902       -0.3419345806
 C          0.4794883398        0.1434576803       -0.8388743803
 H          0.6132974997        0.3220090302       -1.9171633303
 C         -0.0560367605       -1.2601559096       -0.6418731701
 C         -0.9676634907       -1.8798057395       -1.6570455800
 C          0.4477087092       -2.3552881598       -1.5320804601
 H          0.6298736791       -3.3281915698       -1.1012334800
 H          1.1514521592       -2.0801045700       -2.3042371402
 H         -1.7573801608       -2.5277580193       -1.3077990399
 H         -1.2334090307       -1.2871115895       -2.5197836300
 H         -0.2174408604       -1.4975967295        0.4038826699
 O          2.8675159797        0.5540565997       -2.3466129005
