  62
        -98.93653415
 C          2.1596285801        0.9772790700       -0.1023274807
 C          2.8930332902        0.2876010207        0.8907091196
 C          3.7107178403       -0.8397316795        0.4230007102
 C          3.6936655302       -1.1769189803       -0.8793779896
 C          4.4202333103       -2.3302256506       -1.5197575389
 C          5.9594201303       -2.2590576504       -1.5038152591
 C          6.6137565505       -2.9894468096       -0.3245717888
 H          5.9312262506       -3.7616234295        0.0327337018
 H          7.5080078205       -3.5035469198       -0.6826478485
 C          7.0469571405       -2.1070659089        0.8501693007
 H          7.2536874207       -2.7605295283        1.7005339210
 H          7.9795163404       -1.6006617289        0.5910278503
 C          6.0491059704       -1.0326415387        1.2830122501
 H          6.0621858903       -0.2085052292        0.5658020696
 H          6.3865064505       -0.6178558581        2.2350466098
 C          4.5951728805       -1.5235871788        1.4248419406
 H          4.2084441006       -1.2623701983        2.4122180304
 H          4.5410274906       -2.6053984289        1.3105886912
 H          6.2755697102       -1.2166275304       -1.5300881798
 H          6.3064008902       -2.7252905310       -2.4272785289
 H          4.0959384804       -3.2576172504       -1.0420085283
 H          4.0750376202       -2.3503658513       -2.5554083589
 O          2.9461257501       -0.5064004010       -1.7981643899
 C          2.1709347300        0.5871018392       -1.4417323705
 O          1.5500486298        1.1061149985       -2.3871923107
 O          2.8550653203        0.5899304214        2.1151439295
 C          1.3004313400        2.1606248501        0.3029920187
 C         -0.1494202100        1.8849416698       -0.0138761210
 C         -0.9802222302        2.7934367693       -0.6553994515
 C         -2.3038094102        2.4750290490       -0.9077712312
 C         -2.8276513700        1.2543355992       -0.5256251304
 C         -2.0102975198        0.3437801196        0.1320246501
 C         -0.6866359199        0.6670131399        0.3861347498
 H         -0.0505494197       -0.0437375997        0.9006035101
 N         -2.5298440697       -0.9038853502        0.5196568509
 S         -3.9693319996       -0.9334916998        1.3840773211
 O         -4.1469610896        0.2737249806        2.1572195004
 O         -3.9376443894       -2.1743917694        2.1272237118
 C         -5.2218569597       -1.0435520007        0.1238147313
 C         -5.1526756697       -2.0935178813       -0.7707460081
 C         -6.1219208198       -2.1982062220       -1.7554165579
 C         -7.1393449599       -1.2581479821       -1.8267808884
 C         -7.1968810299       -0.2120062116       -0.9188003790
 C         -6.2299455798       -0.1011774209        0.0684506408
 H         -6.2309528098        0.6976757796        0.7928245803
 H         -7.9889120700        0.5172270883       -0.9759795494
 H         -7.8916306099       -1.3418162027       -2.5951195683
 H         -6.0803527397       -3.0102862524       -2.4633489574
 H         -4.3477906796       -2.8037019111       -0.6789843877
 H         -1.8464366696       -1.5115047998        0.9476298612
 H         -3.8554993700        1.0012417689       -0.7274330901
 H         -2.9356697103        3.1880494586       -1.4149144315
 H         -0.5912495104        3.7497268491       -0.9636170121
 H          1.3988576501        2.2317928208        1.3970291886
 C          1.8281727798        3.4375121098       -0.3163257422
 C          1.6213820097        4.7522713602        0.3727041671
 C          2.9848023997        4.1320621903        0.3356083873
 H          3.7397182596        4.5786510300       -0.2939366631
 H          3.3759726399        3.6975218609        1.2441942475
 H          1.4426993395        5.6289521198       -0.2313305935
 H          1.0874455898        4.7461071207        1.3110072071
 H          1.8043737796        3.4146031991       -1.3999338521
