  62
        -98.94121745
 C         -2.5907544258       -1.1993504624        0.4057927850
 C         -2.4530959731       -0.4291095284       -0.7763492355
 C         -3.2487508547        0.8085628933       -0.8314038781
 C         -4.0292050392        1.1446784300        0.2105862031
 C         -4.8431129286        2.4018103051        0.3065131557
 C         -4.0439430935        3.5281699356        0.9767434383
 C         -2.6436360197        3.7244204817        0.3944441339
 H         -2.1846761136        4.5631544747        0.9228570589
 H         -2.0353878148        2.8421582255        0.6103817887
 C         -2.6160085054        3.9962992422       -1.1160921168
 H         -1.9218621963        4.8166727111       -1.3103507098
 H         -3.6024757466        4.3179242979       -1.4525249432
 C         -2.1515954053        2.8124801273       -1.9670472210
 H         -1.9648467910        3.1770400660       -2.9808617194
 H         -1.2011247762        2.4315739832       -1.5813649905
 C         -3.1369785023        1.6416908228       -2.0768960801
 H         -4.1170688241        2.0140698724       -2.3822362807
 H         -2.7641728120        0.9699202091       -2.8556749603
 H         -4.6099595690        4.4566178274        0.8837916728
 H         -3.9425549598        3.2964882364        2.0395752780
 H         -5.7308359121        2.1926022275        0.9057201361
 H         -5.1524450760        2.7054306480       -0.6915075453
 O         -4.1207416977        0.3913569054        1.3364133128
 C         -3.3884642318       -0.7774161632        1.4719714754
 O         -3.5257609792       -1.3394382615        2.5773368791
 O         -1.7119731391       -0.7447534336       -1.7416708112
 C         -1.7977016577       -2.4785357140        0.6204048358
 C         -0.3579696196       -2.2460496179        0.2315449848
 C          0.3076417420       -2.9634123458       -0.7524337834
 C          1.6227534009       -2.6653013462       -1.0649628009
 C          2.3013683628       -1.6575075534       -0.4050661127
 C          1.6439789510       -0.9318227319        0.5799830440
 C          0.3293484934       -1.2360010060        0.8943374679
 H         -0.1865928387       -0.6648634983        1.6583330894
 N          2.3269983300        0.0905143122        1.2652005977
 S          3.0919724295        1.2749848429        0.3500473153
 O          3.1639444722        2.4296873847        1.2200160164
 O          2.4423431729        1.4707765165       -0.9247343673
 C          4.7327931073        0.6256656710        0.1135005700
 C          5.4698809454        0.2970107094        1.2343629093
 C          6.7486732108       -0.2102884397        1.0688716268
 C          7.2669089809       -0.3760767055       -0.2070229255
 C          6.5159588338       -0.0365933544       -1.3220018751
 C          5.2352141564        0.4700236131       -1.1634191247
 H          4.6112629253        0.7411783229       -2.0003224795
 H          6.9205663572       -0.1653614789       -2.3130487077
 H          8.2620775311       -0.7721919335       -0.3333882630
 H          7.3357331328       -0.4751455468        1.9334347050
 H          5.0310891354        0.4449048371        2.2069365569
 H          1.7780927221        0.5194085925        1.9966889287
 H          3.3230970723       -1.4194142692       -0.6519148551
 H          2.1258034835       -3.2241715823       -1.8393314402
 H         -0.2119950669       -3.7347654141       -1.2963217521
 H         -1.8256882089       -2.6472325909        1.7100038326
 C         -2.4081534790       -3.7152683057       -0.0206707609
 C         -3.8897050161       -3.8273709164       -0.2188390460
 C         -2.9819556260       -3.7083734190       -1.4042716521
 H         -2.8335990725       -4.5814591649       -2.0229685270
 H         -2.9617193682       -2.7785066511       -1.9495678259
 H         -4.3627001878       -4.7779114815       -0.0229041307
 H         -4.4960723233       -2.9745664062        0.0507933045
 H         -1.8977302439       -4.6215981923        0.2904609557
