  62
        -98.93377437
 C          2.2448620119       -0.6533108862        0.2565461174
 C          3.1594791630       -0.6704747296       -0.8285466915
 C          4.1726941899        0.3955700055       -0.8673729545
 C          4.1787185353        1.3287885871        0.0990866551
 C          5.0874648074        2.5231719512        0.2484058017
 C          6.5817693591        2.3145717619       -0.0332542532
 C          7.1245857970        0.9260701463        0.3353266288
 H          8.0157693776        1.0463439473        0.9541550371
 H          6.3879895010        0.3813957271        0.9286165837
 C          7.5117625741        0.0923510049       -0.8885755613
 H          8.2076475736       -0.6893944406       -0.5747033933
 H          8.0400017767        0.7347417914       -1.5964384877
 C          6.3521910250       -0.5964370886       -1.6072253033
 H          5.9592343029       -1.4056944866       -0.9858871330
 H          6.7454481263       -1.0547309781       -2.5177164640
 C          5.1723624749        0.3140259488       -1.9849892721
 H          5.5164138833        1.2994485868       -2.2892879116
 H          4.6474142978       -0.1479338987       -2.8253095780
 H          6.7841517504        2.5062844203       -1.0860180873
 H          7.1182304805        3.0774778032        0.5334989752
 H          4.7094240387        3.3206362424       -0.3980118906
 H          4.9520678854        2.8553374012        1.2806180816
 O          3.2725486088        1.3199814305        1.1161179176
 C          2.2922782954        0.3427995865        1.2305717774
 O          1.5563403352        0.4962256803        2.2249211259
 O          3.1286521455       -1.5472863057       -1.7318570031
 C          1.2278031335       -1.7798798338        0.3028673829
 C         -0.0868716075       -1.3757214535       -0.3117578285
 C         -0.7000686017       -2.1660051759       -1.2765109609
 C         -1.9262937170       -1.8058822622       -1.8082846206
 C         -2.5679333395       -0.6561733798       -1.3832819597
 C         -1.9616491298        0.1409325084       -0.4214994854
 C         -0.7290199590       -0.2163395606        0.1015473108
 H         -0.2692985464        0.4033650216        0.8581822544
 N         -2.6301773418        1.3017300679        0.0369507516
 S         -3.9572232638        0.9595132539        1.0223114609
 O         -4.2045258756        2.1667240703        1.7795431164
 O         -3.7400989449       -0.2472936575        1.7882794712
 C         -5.2821086591        0.7100549467       -0.1395523242
 C         -5.6740926707        1.7797181931       -0.9209244309
 C         -6.6996615136        1.5989588766       -1.8351244779
 C         -7.3122499579        0.3596546904       -1.9506169576
 C         -6.9085681950       -0.7030399596       -1.1566985624
 C         -5.8828568556       -0.5293211422       -0.2404075038
 H         -5.5306560157       -1.3262812629        0.3944979437
 H         -7.3860367674       -1.6653263868       -1.2481370371
 H         -8.1096711399        0.2215341992       -2.6635975981
 H         -7.0170886694        2.4227034616       -2.4539752857
 H         -5.1733179460        2.7250953324       -0.7945110860
 H         -2.0121241412        1.9201670489        0.5459435666
 H         -3.5231275930       -0.3693591266       -1.7917045647
 H         -2.3887394985       -2.4277534648       -2.5591668168
 H         -0.2037678652       -3.0641437552       -1.6139416432
 H          1.6605842835       -2.5676730776       -0.3339636922
 C          1.0589569375       -2.3693233825        1.6980819019
 C         -0.1797901534       -2.2289559689        2.5270046942
 C          0.1605961774       -3.5515783925        1.9120945978
 H          0.4985735065       -4.3516516920        2.5529706203
 H         -0.4386843472       -3.8760664835        1.0747925803
 H         -0.0523170391       -2.1006747205        3.5916396416
 H         -1.0195102950       -1.6773909036        2.1314754523
 H          1.9954389260       -2.3683611712        2.2478471540
