  62
        -98.94515229
 C         -1.8010905699       -1.4735096998        0.0844653999
 C         -1.5764747099       -0.0767793598        0.0132376895
 C         -2.6784726299        0.7651007503        0.4964403093
 C         -3.8095084399        0.1951782805        0.9499422895
 C         -5.0142595198        0.9228994507        1.4827001193
 C         -5.9724135999        1.4272088004        0.3945858692
 C         -5.4724636798        2.6273068901       -0.4110137011
 H         -6.3254674998        3.0112098600       -0.9742587512
 H         -5.1543147798        3.4147312303        0.2729071786
 C         -4.3377572899        2.3042689098       -1.3933508911
 H         -4.2948907499        1.2249994598       -1.5567836308
 H         -4.5517320699        2.7659536996       -2.3599720312
 C         -2.9583343599        2.7924232599       -0.9508747213
 H         -2.9526857598        3.8840367499       -0.9130558516
 H         -2.2263911299        2.4741859197       -1.6971301412
 C         -2.5089230698        2.2518138903        0.4122701889
 H         -1.4443079398        2.4635527303        0.5326470988
 H         -3.0608317298        2.7434508505        1.2130769988
 H         -6.9040483498        1.7122242406        0.8890801492
 H         -6.1970503599        0.6007082902       -0.2836776405
 H         -4.6925078398        1.7606069808        2.1022307591
 H         -5.5533564298        0.2122103009        2.1129003695
 O         -3.9855332499       -1.1531764195        0.9953931199
 C         -2.9895944399       -2.0176358597        0.5685870701
 O         -3.2760589500       -3.2278201096        0.6753467004
 O         -0.5169990899        0.4393022900       -0.4238730707
 C         -0.7100777100       -2.4290014000       -0.3661014599
 C          0.5644329600       -2.0887516298        0.3661444600
 C          0.5448992101       -2.0584217094        1.7583249300
 C          1.6684247601       -1.6953215993        2.4752177399
 C          2.8386376201       -1.3516756395        1.8201904197
 C          2.8703826501       -1.3864914099        0.4336130297
 C          1.7431587400       -1.7648553800       -0.2848060901
 H          1.7881452000       -1.7827048903       -1.3623898901
 N          4.0552212601       -1.0334654101       -0.2435470804
 S          4.6875353701        0.4903549700        0.0487445091
 O          5.6554528101        0.7013409797       -1.0046328209
 O          5.1958777902        0.5405985903        1.3963999191
 C          3.3227699101        1.6213320800       -0.1381582411
 C          2.9889857701        2.0409122796       -1.4100752912
 C          1.9079962501        2.8902464896       -1.5732248914
 C          1.1793945702        3.2985777899       -0.4676975615
 C          1.5240704602        2.8636559503        0.8016437786
 C          2.6040849702        2.0134585303        0.9719111488
 H          2.9027406302        1.6545047306        1.9434228289
 H          0.9516425402        3.1782363105        1.6601673785
 H          0.3351322502        3.9575329399       -0.5985744617
 H          1.6321345801        3.2265342993       -2.5599869015
 H          3.5873002601        1.7088984694       -2.2438148612
 H          3.9995057500       -1.1842636304       -1.2412170504
 H          3.7195933001       -1.0460013693        2.3610234196
 H          1.6336291502       -1.6734327390        3.5542264198
 H         -0.3737380199       -2.3111444793        2.2711554401
 H         -1.0321640700       -3.4342014899       -0.0595017096
 C         -0.5813578800       -2.3960785004       -1.8746751599
 C         -0.0245184001       -3.5773068706       -2.6100048396
 C         -1.4866331701       -3.2601064306       -2.6978005296
 H         -1.8747095901       -2.8650321609       -3.6247460097
 H         -2.1840799001       -3.8928599804       -2.1683385694
 H          0.5888033699       -3.4034667309       -3.4815146396
 H          0.2737954899       -4.4346039705       -2.0256770893
 H         -0.3608841600       -1.4041857005       -2.2531955702
