  62
        -98.94762591
 C          1.8350429490        1.3361457216       -0.1018936681
 C          2.9380576187        0.6117170313        0.4140920600
 C          3.2491996467       -0.6562869683       -0.2522038691
 C          2.4972723539       -1.0659547226       -1.2895231701
 C          2.6693511540       -2.3474380419       -2.0576519612
 C          1.9785795321       -3.5449423955       -1.3904030689
 C          2.6863411704       -4.0893140700       -0.1488500053
 H          2.2389055015       -5.0599457974        0.0746855297
 H          3.7407036747       -4.2580590726       -0.3730037423
 C          2.5555998407       -3.1941475258        1.0915342751
 H          1.7211312743       -2.5013775672        0.9519711454
 H          2.3062017415       -3.8107807599        1.9590184204
 C          3.8187934424       -2.4079186872        1.4458285311
 H          4.6124054170       -3.1026711464        1.7315031362
 H          3.5954914920       -1.7777116717        2.3107952475
 C          4.3438891131       -1.5028084740        0.3237207234
 H          5.0954059272       -0.8328138905        0.7493770115
 H          4.8110788256       -2.1035061489       -0.4563994725
 H          1.9172103354       -4.3457576150       -2.1313486320
 H          0.9593057650       -3.2538454615       -1.1220209825
 H          3.7298332283       -2.5620030207       -2.1931701784
 H          2.2156017871       -2.1887362773       -3.0383075804
 O          1.4661276668       -0.3314027781       -1.7756749792
 C          1.0702670894        0.8461095478       -1.1612476447
 O          0.0496051473        1.3547595939       -1.6644053051
 O          3.6214301450        1.0022508768        1.3997700148
 C          1.3875018375        2.5779062968        0.6508287747
 C         -0.0885288266        2.4604887359        0.9418846987
 C         -1.0224937468        3.4545367467        0.6832555765
 C         -2.3661620872        3.2392894838        0.9422092483
 C         -2.8097278485        2.0239287325        1.4297884272
 C         -1.8809057522        1.0235414008        1.6927373017
 C         -0.5342474300        1.2612260497        1.4856548778
 H          0.1735123161        0.4730006901        1.7002605147
 N         -2.2682331719       -0.2593737007        2.1401651958
 S         -2.0423929971       -1.5045138675        1.0345430507
 O         -2.5013561502       -2.7001729125        1.7098828668
 O         -0.6783256180       -1.5160657215        0.5766762293
 C         -3.1746353488       -1.1065917915       -0.2855214657
 C         -2.8219790942       -0.1556008727       -1.2218024876
 C         -3.7544337358        0.2055923937       -2.1835769674
 C         -5.0102427073       -0.3808380834       -2.1916727249
 C         -5.3468756846       -1.3354756727       -1.2432319778
 C         -4.4239342617       -1.6983842364       -0.2765074538
 H         -4.6380092007       -2.4360247560        0.4802221278
 H         -6.3229703993       -1.7932059513       -1.2521142121
 H         -5.7293720418       -0.0924032577       -2.9421150873
 H         -3.4850526524        0.9485783688       -2.9170750477
 H         -1.8372294940        0.2865057003       -1.2040084074
 H         -3.2201591508       -0.2993414546        2.4799319640
 H         -3.8611747972        1.8442252515        1.5975497345
 H         -3.0804110099        4.0215854020        0.7355382141
 H         -0.7040460342        4.3917206823        0.2572153641
 H          1.9276885857        2.5192342378        1.6116233865
 C          1.7858670998        3.8995554527        0.0127945489
 C          2.9327922327        3.9776479028       -0.9489292814
 C          1.5328806083        4.1983882515       -1.4334911314
 H          1.2393999320        5.2019207623       -1.7049635807
 H          1.0650711896        3.4277930194       -2.0249695883
 H          3.5986355633        4.8252959023       -0.8849300312
 H          3.4258079380        3.0534358911       -1.2143939452
 H          1.6885907408        4.7300415539        0.7054194353
