  62
        -98.94042050
 C         -1.7620674825       -0.5598596068        1.0666727220
 C         -1.9302429325       -0.3270176710       -0.3209307545
 C         -3.3007163742       -0.4882988168       -0.8343834394
 C         -4.2895099621       -0.8374069246        0.0072628325
 C         -5.7336026097       -0.9816725572       -0.3747164432
 C         -6.4929412059        0.3380949983       -0.1791425029
 C         -5.7946030757        1.5497952619       -0.7967017001
 H         -6.4354473722        2.4172363070       -0.6238883023
 H         -4.8580629458        1.7320189407       -0.2644278286
 C         -5.5050779922        1.4187817196       -2.2985243772
 H         -5.7824307322        2.3532977619       -2.7908471088
 H         -6.1251552998        0.6307952347       -2.7275423147
 C         -4.0380139342        1.1529026096       -2.6415308492
 H         -3.9100016005        1.2968790946       -3.7176838626
 H         -3.4039313437        1.8858251598       -2.1359813313
 C         -3.5165046291       -0.2491232935       -2.3023152148
 H         -4.1856543515       -1.0027282752       -2.7223984660
 H         -2.5343545814       -0.3589176065       -2.7711303656
 H         -6.6053073794        0.5173623960        0.8927418324
 H         -7.4894386342        0.2306282025       -0.6114520233
 H         -5.7998189991       -1.3010589489       -1.4128918326
 H         -6.1830237430       -1.7464848519        0.2610145998
 O         -4.0902219230       -1.0495525859        1.3336319345
 C         -2.8346751687       -0.8932182050        1.8975337269
 O         -2.8030706222       -1.0716645083        3.1317334877
 H          2.0213185771       -0.0282216546        0.4738552990
 C          1.4906424265        0.8920791868        0.6482972350
 C          0.2487722729        0.8776894617        1.2608972585
 C         -0.4178425755        2.0870177092        1.4451990933
 C          0.1404415414        3.2744999192        1.0161848941
 C          1.3869969110        3.2853968007        0.4143930270
 C          2.0627112413        2.0861989512        0.2312834732
 N          3.3185208331        2.0568424323       -0.3908646336
 S          4.4935088659        0.9962831888        0.1408682280
 O          4.4207345294        0.7907827056        1.5693362867
 O          5.7360858593        1.5519636462       -0.3532262012
 C          4.1707857960       -0.5309350465       -0.7150265952
 C          4.4142036620       -1.7226395903       -0.0611896235
 C          4.2119710680       -2.9143573565       -0.7395687637
 C          3.7716317194       -2.8929898834       -2.0541154755
 C          3.5313822013       -1.6875748951       -2.6956629029
 C          3.7360917027       -0.4926403150       -2.0246843944
 H          3.5536239441        0.4602551762       -2.4926357012
 H          3.1829566683       -1.6749565507       -3.7158017642
 H          3.6107558085       -3.8213421830       -2.5793099430
 H          4.3957413970       -3.8528054847       -0.2405667973
 H          4.7435732322       -1.6933573678        0.9654015410
 H          3.7004897677        2.9574725332       -0.6386189218
 H          1.8283081411        4.2130688352        0.0826197557
 H         -0.3933863942        4.2024769174        1.1578506989
 H         -1.3893523692        2.0792554555        1.9220504558
 C         -0.4114624209       -0.3910931510        1.7413040623
 H         -0.6421363159       -0.2598126126        2.8121806077
 C          0.4926145925       -1.6106358712        1.6403617832
 C         -0.0824099900       -2.9923194140        1.5579808878
 C          0.6268895040       -2.4044932353        0.3770085576
 H          1.6017272341       -2.7907915474        0.1177509946
 H          0.0432825660       -2.0896117402       -0.4729389733
 H         -1.1581738237       -3.0844570168        1.5192633810
 H          0.4027888877       -3.7814714734        2.1123555134
 H          1.3886694446       -1.4982580226        2.2445949175
 O         -0.9987394161       -0.0021502284       -1.1001988909
