  62
        -98.94440485
 C         -1.9361282188       -1.3549250945        0.0779164279
 C         -2.2111277981       -0.3995543912       -0.9302896719
 C         -3.5825572354        0.1320670745       -0.9576328043
 C         -4.4833338537       -0.2984063567       -0.0568072370
 C         -5.8909111039        0.2071465344        0.0635670881
 C         -5.9757531321        1.3870421302        1.0420302219
 C         -4.9341859730        2.4770989922        0.7885891920
 H         -5.1100813678        3.2706232467        1.5181940406
 H         -3.9385908536        2.0737809634        0.9888049906
 C         -4.9657573751        3.0691413419       -0.6274243306
 H         -5.9206427685        2.8419376604       -1.1028409128
 H         -4.8909580954        4.1562140749       -0.5538757284
 C         -3.8250433153        2.6051488391       -1.5350718002
 H         -2.8697933911        2.7476419035       -1.0227790434
 H         -3.8175030096        3.2426301085       -2.4233977565
 C         -3.9046782969        1.1504402895       -2.0153141945
 H         -4.8888772018        0.9594383622       -2.4474046264
 H         -3.1538116113        1.0184245455       -2.7997028069
 H         -5.8325658669        1.0071940835        2.0562851456
 H         -6.9771033129        1.8167674965        0.9785308645
 H         -6.5175010639       -0.6058367073        0.4342224609
 H         -6.2490387254        0.5096413364       -0.9185410633
 O         -4.1897098981       -1.2237317236        0.8904441718
 C         -2.9206830560       -1.7652184256        0.9846585039
 O         -2.7914597317       -2.6006299655        1.9014177179
 O         -1.3727793115        0.0103262199       -1.7788523456
 C         -0.5782597264       -2.0167524528        0.2613055118
 C          0.3934810367       -1.1078967057        0.9750770469
 C          0.9408109872       -1.4667373079        2.2009716634
 C          1.8571111441       -0.6438343970        2.8334775466
 C          2.2461838760        0.5516470187        2.2564920139
 C          1.6985181386        0.9209567066        1.0349594296
 C          0.7863314504        0.0922910416        0.3998004170
 H          0.3641182061        0.3859968810       -0.5498014114
 N          2.1051136280        2.1288253574        0.4276161207
 S          3.7464601380        2.2205298217        0.0912550147
 O          4.4607390931        2.5425110538        1.3011662431
 O          3.8745635540        3.1692521870       -0.9919593927
 C          4.1713864568        0.5744197137       -0.4481919508
 C          3.6989872973        0.1511979438       -1.6746049084
 C          3.9469236476       -1.1512713447       -2.0747514959
 C          4.6522552665       -2.0061801892       -1.2417399630
 C          5.1196194305       -1.5658774954       -0.0135122251
 C          4.8756706454       -0.2635401688        0.3917800109
 H          5.2192015815        0.1194252933        1.3385699129
 H          5.6674087917       -2.2337813756        0.6313628578
 H          4.8389346930       -3.0221314638       -1.5524991412
 H          3.5836769666       -1.4943454580       -3.0304201660
 H          3.1552964990        0.8433117806       -2.2980657526
 H          1.5736383156        2.3400836106       -0.4057315685
 H          2.9648371286        1.2025666686        2.7279112155
 H          2.2731871988       -0.9365130864        3.7853383940
 H          0.6353297775       -2.3943231062        2.6627295265
 H         -0.7611079262       -2.8845844597        0.9084005219
 C          0.0241470751       -2.5095740573       -1.0415552781
 C          1.0707946033       -3.5797623317       -0.9966467145
 C         -0.2979551514       -3.8908172521       -1.5223727427
 H         -0.4231505005       -4.0504757891       -2.5828180551
 H         -0.9566237401       -4.4914872346       -0.9116835143
 H          1.8904720073       -3.5252001548       -1.6955490988
 H          1.3428657605       -3.9723208354       -0.0288348822
 H          0.1261196789       -1.7342691145       -1.7887879356
