  62
        -98.94098771
 C         -2.5593522079       -0.2522408606        0.5281796997
 C         -2.2783710894        0.3152555602       -0.7394598434
 C         -2.1361767455        1.7787808111       -0.7711654995
 C         -2.2708018726        2.4842345588        0.3650030109
 C         -2.1533074335        3.9769420061        0.4723037969
 C         -0.7262670953        4.4177504451        0.8221848113
 C          0.3575503343        3.7909607116       -0.0553306787
 H          1.3094868293        4.2363343183        0.2440736491
 H          0.4303610033        2.7222431364        0.1603019594
 C          0.1558957700        3.9886388133       -1.5640200714
 H         -0.5256791410        4.8214462227       -1.7438001189
 H          1.1172898434        4.2531581028       -2.0091159931
 C         -0.3489538242        2.7456962149       -2.3001911791
 H         -0.1890976894        2.8933166847       -3.3718206195
 H          0.2416318635        1.8789390280       -1.9907276861
 C         -1.8326212686        2.4103409396       -2.0999549504
 H         -2.4394967451        3.3055297909       -2.2532772534
 H         -2.1135823920        1.6694186655       -2.8541896272
 H         -0.5229137075        4.1434866955        1.8602251319
 H         -0.6766948734        5.5058767604        0.7419847663
 H         -2.4607527995        4.4243061167       -0.4712207305
 H         -2.8289963606        4.3145906607        1.2607420248
 O         -2.5205001308        1.9041521183        1.5684043173
 C         -2.6303513450        0.5281664728        1.6830249191
 O         -2.7978529157        0.1253092482        2.8538289991
 H         -0.1192146043       -1.0641693900        0.8148617237
 C         -0.2535758580       -1.9167530123        0.1637367557
 C         -1.5306647524       -2.4348718820       -0.0183796161
 C         -1.6845970597       -3.5413470502       -0.8413537274
 C         -0.5838444803       -4.1010482584       -1.4692519152
 C          0.6787331334       -3.5639177336       -1.3087977714
 C          0.8407549556       -2.4447098786       -0.4963332252
 N          2.0980199486       -1.8292312879       -0.3783581143
 S          2.3557853710       -0.5446647531        0.6666359345
 O          2.1983827781       -0.9614404032        2.0454131830
 O          1.5575848775        0.5746625334        0.2379090595
 C          4.0772893713       -0.2293144854        0.3298394709
 C          4.4093408850        0.5983499479       -0.7255527858
 C          5.7478865311        0.8205604706       -1.0078415902
 C          6.7268455467        0.2131961353       -0.2355295891
 C          6.3787640247       -0.6134089093        0.8221853716
 C          5.0418424835       -0.8392359926        1.1095671604
 H          4.7239434762       -1.4632771380        1.9293405004
 H          7.1418028750       -1.0810757899        1.4232374977
 H          7.7677746544        0.3879710964       -0.4570928739
 H          6.0216448046        1.4657082634       -1.8269763698
 H          3.6131604694        1.0537388961       -1.2915665596
 H          2.8850681110       -2.4561942440       -0.4529653704
 H          1.5302155781       -3.9906830677       -1.8154690907
 H         -0.7157694562       -4.9642234519       -2.1041034912
 H         -2.6646404438       -3.9573584025       -1.0074078145
 C         -2.6612864268       -1.7565489414        0.7184470395
 H         -2.4923427514       -1.9150263591        1.7980184134
 C         -4.0307264162       -2.3413375445        0.4038309072
 C         -5.2601533128       -1.4837031953        0.4065918897
 C         -4.7437319704       -2.0484926386       -0.8807628069
 H         -5.3030368190       -2.8449182146       -1.3495044306
 H         -4.2555432811       -1.3845654920       -1.5760261312
 H         -6.1674312764       -1.8933075534        0.8250236598
 H         -5.1325182666       -0.4266075363        0.5913309260
 H         -4.1484376423       -3.3408833555        0.8111449231
 O         -2.1638370511       -0.3531278399       -1.7993945660
