  62
        -98.93302691
 C         -1.5086737703       -1.5741891093        0.4014614098
 C         -1.6856157903       -0.2420302690        0.8480777489
 C         -2.9497769701        0.4283633909        0.4956095281
 C         -3.8600312499       -0.2467279595       -0.2287625518
 C         -5.2221144597        0.2021490103       -0.6947611525
 C         -5.3243695494        1.6236063300       -1.2688815234
 C         -6.0747952896        2.5963712706       -0.3572703143
 H         -6.4808646794        3.4053921603       -0.9685932049
 H         -6.9212244998        2.0708080210        0.0897750158
 C         -5.2345406900        3.2319295412        0.7490659156
 H         -4.5433698498        3.9537436709        0.3086427854
 H         -5.9127838301        3.7881938717        1.4003971351
 C         -4.4291708203        2.2513868317        1.6040716665
 H         -4.2172104906        2.7367333822        2.5592483063
 H         -5.0197763205        1.3626809818        1.8242898868
 C         -3.0865218802        1.8474004012        0.9762766472
 H         -2.8459082198        2.5244454206        0.1512770669
 H         -2.2863664604        1.9673102415        1.7137402974
 H         -5.8682585791        1.5614105195       -2.2128337536
 H         -4.3299143893        2.0048588898       -1.4948765333
 H         -5.5149740596       -0.5265486701       -1.4540860922
 H         -5.9252439900        0.0860114209        0.1340057873
 O         -3.6504510699       -1.5291734898       -0.6365059610
 C         -2.4808325601       -2.2238159297       -0.3587118602
 O         -2.4566160700       -3.3705803100       -0.8390889895
 H          2.2668302295       -1.1674415592        1.1683423208
 C          2.0620753698       -1.3374890298        0.1223391308
 C          0.8519460699       -1.8881607899       -0.2702390392
 C          0.6134459404       -2.0896628307       -1.6268782492
 C          1.5721392207       -1.7491709514       -2.5627395691
 C          2.7731905006       -1.1844795313       -2.1683096590
 C          3.0188606602       -0.9737348705       -0.8169148191
 N          4.2327368501       -0.4124329403       -0.3879933590
 S          4.2390430398        0.8325472304        0.7334689803
 O          5.5941577699        1.3370123602        0.6959403104
 O          3.7773336594        0.3472729412        2.0077133004
 C          3.1271883402        2.0544234401        0.0622536592
 C          3.6565951405        3.0075300195       -0.7878690512
 C          2.8098846508        3.9342794292       -1.3722121321
 C          1.4491724207        3.8882393895       -1.1060529325
 C          0.9351636203        2.9250884601       -0.2531358721
 C          1.7768514701        1.9965349603        0.3400617587
 H          1.3798163998        1.2470516408        1.0060359791
 H         -0.1201277197        2.8745248703       -0.0355293524
 H          0.7870406409        4.6072924693       -1.5623815932
 H          3.2100077511        4.6866365088       -2.0326860324
 H          4.7209462206        3.0127409193       -0.9595748609
 H          4.8784403904       -0.2075829908       -1.1373963989
 H          3.5165626609       -0.9105717218       -2.9013907189
 H          1.3791101811       -1.9157154020       -3.6117448190
 H         -0.3289504796       -2.5186476908       -1.9344070993
 C         -0.1903153605       -2.2346766992        0.7624608806
 H          0.1182330193       -1.7577313387        1.7072434504
 C         -0.2987972607       -3.7282176891        1.0290800115
 C          0.2976624395       -4.7745622696        0.1411722623
 C          0.9141087591       -4.4900634489        1.4758504324
 H          0.8075364888       -5.2185092584        2.2653687828
 H          1.8545091491       -3.9585268290        1.4896738823
 H         -0.2584722305       -5.6897626797        0.0078635627
 H          0.8278156699       -4.4564065602       -0.7423829077
 H         -1.2377639609       -3.9870081987        1.5072763313
 O         -0.8151145105        0.3664070313        1.5280788588
