  62
        -98.94364327
 C          1.8461478401        0.8528507172        0.7579499730
 C          2.1234942959        0.4138777518       -0.5593644898
 C          3.5420022023        0.4078771975       -0.9387891469
 C          4.4710503666        0.8401482345       -0.0668493570
 C          5.9531385576        0.9132731268       -0.3164362772
 C          6.6927119867       -0.4079123534       -0.0645249418
 C          6.4520489117       -1.4976579149       -1.1100823182
 H          6.6416640684       -1.0930827882       -2.1047364606
 H          7.1907247936       -2.2816027105       -0.9311952036
 C          5.0497554970       -2.1209313659       -1.0645559073
 H          4.5775222928       -1.8873230440       -0.1074541487
 H          5.1325400076       -3.2086412266       -1.1218390427
 C          4.1210149056       -1.6770713380       -2.1948923643
 H          3.1461162482       -2.1469031807       -2.0410464540
 H          4.5167154278       -2.0252799357       -3.1515684694
 C          3.9070304884       -0.1599012807       -2.2769422367
 H          4.8001026098        0.3263031240       -2.6686954535
 H          3.0740503290        0.0321916876       -2.9572902433
 H          7.7618320136       -0.1841922423       -0.0433620045
 H          6.4125926386       -0.7820684425        0.9230177952
 H          6.1374087804        1.2459810907       -1.3381926386
 H          6.3475994123        1.6646711170        0.3709975406
 O          4.1566813285        1.2907218625        1.1777061355
 C          2.8464503827        1.2810885781        1.6293327829
 O          2.7040621757        1.6725072510        2.8062372863
 O          1.2382688015        0.0461417078       -1.3735281791
 C          0.4146366756        0.8574883254        1.2604571421
 C         -0.1912682113       -0.5187708414        1.1271143961
 C          0.5573886522       -1.6305978987        1.5052939979
 C          0.0385375324       -2.9049590301        1.3899233629
 C         -1.2457894872       -3.0985055671        0.9120296541
 C         -2.0079902022       -1.9963042999        0.5471612238
 C         -1.4791685454       -0.7167605944        0.6552421686
 H         -2.0871586208        0.1248464836        0.3694286385
 N         -3.3043605044       -2.1601631006        0.0410459168
 S         -4.5115743178       -1.0688776510        0.4165713629
 O         -4.3753643337       -0.5626325454        1.7624753870
 O         -5.7413485042       -1.7773070363        0.1301926846
 C         -4.3256182011        0.2546178167       -0.7599436706
 C         -3.9194093597       -0.0338981643       -2.0475637749
 C         -3.8170795268        1.0009267801       -2.9635081915
 C         -4.1290899871        2.2972551140       -2.5829372886
 C         -4.5424948268        2.5694377275       -1.2881193485
 C         -4.6425340683        1.5395839909       -0.3656658733
 H         -4.9475164246        1.7080868313        0.6550477175
 H         -4.7849112932        3.5782971297       -0.9933586472
 H         -4.0474933409        3.1002462755       -3.2984965032
 H         -3.4915076234        0.7933677502       -3.9701702781
 H         -3.6782164329       -1.0501717138       -2.3107536899
 H         -3.6425331692       -3.1107215512        0.0189465170
 H         -1.6527361736       -4.0940622611        0.8198285384
 H          0.6362678133       -3.7567427002        1.6783661457
 H          1.5595458121       -1.4809205729        1.8845638067
 H          0.4648458283        1.1044727092        2.3316070233
 C         -0.3771557481        1.9356106699        0.5489095568
 C         -1.5168853265        2.6215921084        1.2381874076
 C         -0.2318040425        3.3556442610        1.0033801032
 H         -0.2122319135        4.1365757461        0.2583980848
 H          0.4171551633        3.5403675908        1.8473589262
 H         -2.3790684777        2.8988105973        0.6506829689
 H         -1.7528158493        2.3124130344        2.2456002866
 H         -0.4570656695        1.7557348229       -0.5172511575
