  62
        -98.93483400
 C          2.0958855791        1.0082621142        0.2973448047
 C          2.0056508898        0.0205990901       -0.7122913980
 C          2.2508459607       -1.3734465268       -0.2926002564
 C          2.5222176503       -1.6486937885        0.9952270564
 C          2.7535915241       -2.9660421347        1.7065116043
 C          3.0905924617       -4.2318337703        0.9217029819
 C          4.4328714423       -4.1998079317        0.1925284367
 H          5.2336350673       -4.1912722845        0.9360433718
 H          4.5251840146       -5.1209707605       -0.3869184930
 C          4.6509110225       -3.0070674797       -0.7352286401
 H          5.6284057279       -3.1273769297       -1.2099389503
 H          4.6891594583       -2.0872951143       -0.1480633607
 C          3.6128857228       -2.8420087397       -1.8442799140
 H          3.5210571896       -3.7738329382       -2.4054355627
 H          3.9825163820       -2.0736334031       -2.5283514825
 C          2.2105986917       -2.4070233293       -1.3807373069
 H          1.6979795382       -1.9409650634       -2.2276156556
 H          1.6070859415       -3.2580197636       -1.0720896087
 H          2.2887001156       -4.4688498416        0.2284993521
 H          3.1303152321       -5.0456659366        1.6510238070
 H          1.8426304005       -3.1511191794        2.2871844889
 H          3.5496949541       -2.7726837064        2.4326008837
 O          2.5828013853       -0.6643132909        1.9397086623
 C          2.3647326279        0.6618276121        1.6225006844
 O          2.4531003488        1.4390334096        2.5962556432
 O          1.7313695734        0.2598948438       -1.9185650594
 C          1.8295213609        2.4863367801        0.0682154173
 C          0.3619801009        2.8002916159        0.2527350372
 C         -0.0375933946        3.9662205743        0.8967570648
 C         -1.3793541430        4.2417392351        1.0874767431
 C         -2.3471072662        3.3487606891        0.6640875789
 C         -1.9577726297        2.1831304681        0.0146322293
 C         -0.6126083531        1.9283818251       -0.2074562801
 H         -0.3359925904        1.0218887254       -0.7235825805
 N         -2.9064095045        1.2476410614       -0.4288776842
 S         -2.5124638966       -0.3906114186       -0.2710631984
 O         -1.7827653651       -0.6084577147        0.9584967715
 O         -1.8843130777       -0.8403831545       -1.4867441220
 C         -4.1465876676       -1.0986419629       -0.1528619926
 C         -4.8472327656       -1.3563437712       -1.3161644921
 C         -6.1317465333       -1.8687001354       -1.2251514546
 C         -6.6917490541       -2.1125758377        0.0201769243
 C         -5.9758453695       -1.8509832110        1.1788097619
 C         -4.6911873035       -1.3370391310        1.0948430906
 H         -4.0932094219       -1.1253150863        1.9669370250
 H         -6.4118249491       -2.0447287633        2.1455531051
 H         -7.6913616639       -2.5116220344        0.0885117538
 H         -6.6897772648       -2.0760692344       -2.1238617488
 H         -4.3658192834       -1.1591049431       -2.2598042142
 H         -3.8392516852        1.4413217842       -0.0897390966
 H         -3.3938577042        3.5485586193        0.8358452135
 H         -1.6747796940        5.1498516495        1.5904986780
 H          0.7130097460        4.6485971226        1.2664449910
 H          2.3797108043        3.0159796739        0.8596702133
 C          2.3086159918        3.0049349862       -1.2738605394
 C          2.7086006070        4.4422836275       -1.4082244549
 C          3.7513910006        3.3667488749       -1.4502684347
 H          4.2262684510        3.1363595787       -2.3918007134
 H          4.4009819407        3.2520713033       -0.5943948077
 H          2.4645948917        4.9578625383       -2.3241481624
 H          2.6618468148        5.0635024881       -0.5269556763
 H          1.8072713843        2.5391082220       -2.1120878942
