  62
        -98.93973070
 C         -2.3182335574       -1.0497742079        0.1564944885
 C         -2.5913912904        0.1991802659       -0.4540618052
 C         -3.6719529026        0.9860765980        0.1596352909
 C         -4.2918999016        0.5377049071        1.2651459681
 C         -5.3902953090        1.2400223531        2.0158849323
 C         -6.7909206520        1.0042285814        1.4339749597
 C         -7.0776213437        1.7240541798        0.1155711919
 H         -8.1521015440        1.6492863232       -0.0630323499
 H         -6.8381942127        2.7826531747        0.2209404185
 C         -6.3354434850        1.1449324723       -1.0970118297
 H         -5.9728475498        0.1424808317       -0.8576521121
 H         -7.0297088055        1.0421143789       -1.9340733975
 C         -5.1605401488        1.9923286155       -1.5857045453
 H         -4.6868880401        1.4724052003       -2.4226152814
 H         -5.5289600422        2.9529381964       -1.9526263424
 C         -4.0859228160        2.2553592000       -0.5225949912
 H         -4.4478068150        2.9796324252        0.2068062476
 H         -3.2054362482        2.6693223351       -1.0205230809
 H         -6.9377333275       -0.0702234339        1.3019270365
 H         -7.5142159013        1.3496157449        2.1761160632
 H         -5.3700867013        0.8467028863        3.0344392406
 H         -5.1850654798        2.3102452942        2.0521074223
 O         -3.9629475040       -0.6418120625        1.8550407844
 C         -2.9996024143       -1.4683547343        1.3043616209
 O         -2.8373465587       -2.5407205564        1.9196771033
 O         -1.9781973757        0.6580163950       -1.4536141683
 C         -1.2890650259       -2.0339926676       -0.3769238276
 C          0.0952592967       -1.7180392549        0.1261177644
 C          0.8799623499       -2.6941781522        0.7278148107
 C          2.1624612224       -2.4005848879        1.1580117417
 C          2.6886401285       -1.1320153250        0.9914054527
 C          1.9115384612       -0.1496386777        0.3919413642
 C          0.6244907891       -0.4440691413       -0.0302143554
 H          0.0285689197        0.3204958604       -0.5075935140
 N          2.4524007730        1.1419719453        0.2023689771
 S          3.7286968312        1.2093972918       -0.8973081790
 O          3.7677872419        2.5776307104       -1.3646807160
 O          3.5990791631        0.1863279068       -1.9101600546
 C          5.1662620510        0.8936542587        0.1039435198
 C          5.9489650568       -0.2162596976       -0.1467250401
 C          7.0645264978       -0.4412982535        0.6449397594
 C          7.3754248897        0.4427011559        1.6669024841
 C          6.5801800039        1.5543387547        1.9037957932
 C          5.4643219125        1.7858498292        1.1154554372
 H          4.8225422681        2.6387248340        1.2610689244
 H          6.8257529450        2.2396493658        2.6989853307
 H          8.2431245458        0.2646473803        2.2823222562
 H          7.6841865732       -1.3044311704        0.4621772355
 H          5.6639533839       -0.8780183593       -0.9487796699
 H          1.7499255442        1.8149606766       -0.0742326004
 H          3.6867342630       -0.8970447043        1.3234438580
 H          2.7594705037       -3.1680491312        1.6261718867
 H          0.4740121282       -3.6860145601        0.8639912539
 H         -1.5807768579       -3.0076053637        0.0471995765
 C         -1.3435846115       -2.1693224404       -1.8946804194
 C         -0.2514064762       -1.7286537919       -2.8187682609
 C         -0.4886230533       -3.1890254694       -2.5871635949
 H         -0.9225961289       -3.7789218941       -3.3801738637
 H          0.2350445111       -3.7184492594       -1.9857517503
 H         -0.5444361425       -1.2965641004       -3.7639927604
 H          0.6394555219       -1.2817627579       -2.4037247529
 H         -2.3554823960       -2.0535796952       -2.2707243670
