  62
        -98.93751795
 C         -1.8664750310       -0.5168632408       -0.5359668035
 C         -2.9435202006       -1.2888440738       -0.0386104416
 C         -4.2810404584       -0.6902404193       -0.1576528540
 C         -4.4057888487        0.5239312058       -0.7239683849
 C         -5.6865252496        1.2995224206       -0.8489825322
 C         -6.0496912092        1.9398848827        0.5060581050
 C         -7.3319441751        1.3961914728        1.1367139721
 H         -7.3674281444        1.7562239560        2.1671363156
 H         -8.1916998322        1.8171750485        0.6112348627
 C         -7.4827392108       -0.1281098986        1.1351686479
 H         -8.2863841397       -0.3684385535        1.8344712395
 H         -7.8162376791       -0.4628006066        0.1517935256
 C         -6.2329961698       -0.9264959094        1.5279056275
 H         -6.5498142726       -1.7727480619        2.1408434494
 H         -5.5673263037       -0.3205112300        2.1428479924
 C         -5.4427682144       -1.5057678465        0.3395108320
 H         -6.1266531160       -1.7096564204       -0.4889985039
 H         -5.0032689721       -2.4599764105        0.6446667733
 H         -6.1610133214        3.0179939661        0.3806462425
 H         -5.2124773264        1.7892284306        1.1908504044
 H         -5.5260488287        2.0707234789       -1.6026699809
 H         -6.4835370977        0.6413089466       -1.1877782714
 O         -3.3465283260        1.2351027313       -1.1903890433
 C         -2.0520396313        0.7409689130       -1.1084110744
 O         -1.1840333635        1.5030066619       -1.5736685537
 O         -2.7920071609       -2.4265596578        0.4825241616
 C         -0.4595757948       -1.0831895608       -0.4408723638
 C          0.3863414066       -0.1727772429        0.4132674362
 C          0.0211293313        0.0097071255        1.7458697664
 C          0.7338604838        0.8633063223        2.5637628745
 C          1.8328665326        1.5475183741        2.0729373371
 C          2.2068603678        1.3729033052        0.7465140709
 C          1.4888071289        0.5103695186       -0.0730743070
 H          1.7895101414        0.4119417971       -1.1018614076
 N          3.3019380175        2.0769666058        0.2216304806
 S          4.4374976196        1.3249825296       -0.7445053194
 O          5.5368034341        2.2629236216       -0.8032327148
 O          3.8582961659        0.9393541297       -2.0050951588
 C          4.9258196628       -0.1166533295        0.1849965984
 C          5.9014123811        0.0269718658        1.1526805117
 C          6.2485364100       -1.0700838855        1.9238326749
 C          5.6104960202       -2.2846695243        1.7213967213
 C          4.6326249327       -2.4118203735        0.7471241217
 C          4.2832954349       -1.3188489093       -0.0306663737
 H          3.5310596543       -1.3818155742       -0.7992589227
 H          4.1386687640       -3.3572351816        0.5888432874
 H          5.8783054241       -3.1383589617        2.3237667167
 H          7.0118955800       -0.9751923048        2.6791884165
 H          6.3793787433        0.9861728743        1.2690476209
 H          3.7500493300        2.6992493651        0.8780959649
 H          2.3874297617        2.2224158626        2.7071470119
 H          0.4353103066        0.9978629880        3.5924288512
 H         -0.8407466819       -0.5220341711        2.1254149627
 H         -0.5706436448       -2.0431094090        0.0840158257
 C          0.1072482041       -1.3472389064       -1.8186894796
 C          1.1613447855       -2.3958875739       -2.0049510253
 C         -0.2303015198       -2.6340297386       -2.5078580664
 H         -0.4068182756       -2.6167685591       -3.5728909647
 H         -0.8546757731       -3.3345567025       -1.9727402564
 H          1.9450193199       -2.2151419513       -2.7260741353
 H          1.4772455228       -2.9440587869       -1.1299825296
 H          0.1599866521       -0.4560320679       -2.4341824799
