  62
        -98.93713834
 C          1.8446222367        0.7192745832        0.0661789112
 C          2.4340230446       -0.4973136819        0.4900730103
 C          3.7982503514       -0.7956642080        0.0136602304
 C          4.4025830173        0.0875893743       -0.8023388917
 C          5.7886622209        0.0247076320       -1.3868196620
 C          6.8797888343        0.3716449484       -0.3611910954
 C          6.6991149643       -0.2718167789        1.0110883788
 H          7.4684606888        0.1350757256        1.6726375320
 H          5.7312034461        0.0227337616        1.4207326162
 C          6.8190226424       -1.7937154857        1.0372949670
 H          7.8024112201       -2.0823369438        0.6594059387
 H          6.7609765619       -2.1056663722        2.0833224525
 C          5.7530726792       -2.5632934887        0.2541606459
 H          5.8166177794       -3.6112386998        0.5619142926
 H          5.9580785351       -2.5431103626       -0.8128438464
 C          4.3185963143       -2.1183513044        0.5224445809
 H          3.6364123758       -2.8773524400        0.1197746025
 H          4.1388772217       -2.1184353000        1.6038267072
 H          7.8473814973        0.0845170448       -0.7761508407
 H          6.8798197869        1.4554587452       -0.2224197535
 H          5.9648953659       -0.9530281227       -1.8252384581
 H          5.8221447230        0.7616312340       -2.1922691717
 O          3.7975898351        1.2449137046       -1.1873480311
 C          2.5240842723        1.5974027508       -0.7780928039
 O          2.1415565302        2.6929627882       -1.2313303617
 H         -1.2539269892       -1.0845943316        0.4629146800
 C         -1.3635905656       -0.4346228708       -0.3927106461
 C         -0.5734587246        0.7007026106       -0.5113226298
 C         -0.7214326725        1.5031549280       -1.6388083379
 C         -1.6342946809        1.1682146233       -2.6213902939
 C         -2.4291774124        0.0423919520       -2.4935574726
 C         -2.2895613260       -0.7661487540       -1.3728115777
 N         -3.0863347046       -1.9162009722       -1.2105677308
 S         -3.9692529164       -2.0560378812        0.2063543912
 O         -3.0959686446       -2.3557281563        1.3110648663
 O         -4.9901686905       -3.0368054862       -0.0894835044
 C         -4.7029639655       -0.4436000817        0.4088645147
 C         -5.8402902171       -0.1421773078       -0.3147925293
 C         -6.3663379457        1.1367569685       -0.2343083140
 C         -5.7419717313        2.0908123998        0.5550801793
 C         -4.6015457069        1.7724372247        1.2759044012
 C         -4.0743021667        0.4928908467        1.2036573848
 H         -3.1918865505        0.2026825683        1.7502477992
 H         -4.1159658342        2.5143947719        1.8893339631
 H         -6.1467835453        3.0888968069        0.6113159555
 H         -7.2560701978        1.3870851689       -0.7892661026
 H         -6.2975994467       -0.9152408066       -0.9110047749
 H         -3.6798069576       -2.1128994745       -2.0044522275
 H         -3.1445424943       -0.2156781945       -3.2598181859
 H         -1.7327252569        1.7947758430       -3.4947582987
 H         -0.0924431372        2.3717276119       -1.7525541293
 C          0.4390159409        1.0176782098        0.5634154122
 H          0.2756174521        0.3128260937        1.3903760224
 C          0.2836994199        2.4277389990        1.0961045229
 C         -0.7993032013        2.7171757977        2.0897242773
 C          0.6346807213        2.7086354034        2.5251604196
 H          1.1111599137        3.6476618056        2.7634262657
 H          0.9803865056        1.8801750878        3.1268357743
 H         -1.3114557785        3.6649185892        2.0302513019
 H         -1.4228167064        1.8932546977        2.4024021102
 H          0.5232259231        3.1944490075        0.3717563138
 O          1.8482906266       -1.3108440646        1.2563509261
