  62
        -98.94388005
 C          1.6696398267        1.4320882412        0.5630964776
 C          2.6538172551        1.0596161065       -0.3850153467
 C          3.4827054964       -0.1017251423       -0.0212413091
 C          3.2115597575       -0.7894022802        1.1019641525
 C          3.9365737398       -2.0243289437        1.5513147399
 C          3.2818118879       -3.2990861799        1.0008754738
 C          3.0030268300       -3.2530332372       -0.5013084211
 H          2.5734552298       -4.2174234138       -0.7811425894
 H          2.2503442356       -2.4873561341       -0.7024345574
 C          4.2390026660       -2.9815668776       -1.3696637989
 H          4.2326734576       -3.6725859720       -2.2151928123
 H          5.1468433565       -3.1787052007       -0.7981788457
 C          4.3018739605       -1.5679040257       -1.9495894404
 H          5.0842616071       -1.5476120446       -2.7129569893
 H          3.3565697186       -1.3305866299       -2.4436869840
 C          4.6149915676       -0.4512556363       -0.9461636375
 H          5.5088285433       -0.7107754213       -0.3748187234
 H          4.8253292726        0.4568804476       -1.5185384930
 H          2.3349440868       -3.4564724454        1.5223968477
 H          3.9350591861       -4.1441569025        1.2260116341
 H          4.9725931026       -1.9668355141        1.2224323562
 H          3.9146893582       -2.0572585662        2.6421058198
 O          2.2009737032       -0.4530153205        1.9446758835
 C          1.4226856543        0.6653601677        1.7060305720
 O          0.5482926449        0.8728238450        2.5718317668
 H         -1.6837215322        2.0822884522        1.3766371789
 C         -1.6409615834        1.8716393576        0.3166068665
 C         -0.4684715777        2.1279412917       -0.3786539743
 C         -0.4141124012        1.8199574874       -1.7339525251
 C         -1.5121941093        1.2687786156       -2.3695573886
 C         -2.6770012999        1.0012175531       -1.6700125185
 C         -2.7362842704        1.3015361476       -0.3160543104
 N         -3.8996673796        0.9935436393        0.4154467700
 S         -4.4686387885       -0.5733613483        0.2610036610
 O         -5.2896020904       -0.6692822158       -0.9204648855
 O         -5.1346813401       -0.8669490711        1.5107610279
 C         -3.0216639075       -1.6025864244        0.0637206576
 C         -2.9632857198       -2.4868834051       -0.9943639078
 C         -1.8426413595       -3.2885350436       -1.1392120965
 C         -0.7985997851       -3.1857941693       -0.2332348918
 C         -0.8683332962       -2.2871256497        0.8198067006
 C         -1.9910429266       -1.4909119576        0.9761856790
 H         -2.0547896294       -0.7897933630        1.7933421495
 H         -0.0525859110       -2.1875602185        1.5194632027
 H          0.0753107016       -3.8074026182       -0.3465710016
 H         -1.7836377173       -3.9872040272       -1.9580782004
 H         -3.7930838395       -2.5263649947       -1.6811954281
 H         -3.8380658540        1.2494758507        1.3907568309
 H         -3.5348329876        0.5551746816       -2.1471657285
 H         -1.4584802461        1.0323655666       -3.4212796749
 H          0.5046694634        1.9872576434       -2.2745148756
 C          0.7384926998        2.6231898990        0.3793312362
 H          0.4052195292        2.9005161803        1.3887999485
 C          1.3804076058        3.8368979338       -0.2559196844
 C          0.7054849574        5.1657746670       -0.1027052473
 C          1.9856933913        4.8866982162        0.6245652650
 H          2.8874496117        5.3789600796        0.2928744560
 H          1.9420147946        4.7330316649        1.6932792170
 H         -0.2074929284        5.2009308679        0.4729752886
 H          0.7255419484        5.8519900277       -0.9351688175
 H          1.8810898298        3.6312519367       -1.1913834508
 O          2.8560690010        1.6489173246       -1.4778606372
