  62
        -98.92836308
 C         -2.5386975927       -1.1527481567        0.7074017733
 C         -2.5684096185        0.1658678237        1.2285138475
 C         -3.7483271124        0.9791991886        0.9044935081
 C         -4.7179512995        0.4433181139        0.1413482654
 C         -5.9444153065        1.1616273550       -0.3453122007
 C         -5.5797277523        2.0836271131       -1.5263372505
 C         -5.7474399199        3.5754997893       -1.2370379301
 H         -5.2613106221        4.1219611580       -2.0480956611
 H         -6.8104068506        3.8245115189       -1.2623323609
 C         -5.1841720569        4.0641334603        0.1008563656
 H         -5.1393594328        5.1539793815        0.0472590116
 H         -5.8815855926        3.8205631446        0.9036961730
 C         -3.7955278856        3.5329352451        0.4796535331
 H         -3.2362880433        4.3466731623        0.9461151742
 H         -3.2389690652        3.2370965239       -0.4103079224
 C         -3.8082279442        2.3653808625        1.4840369181
 H         -2.9196325214        2.4409489083        2.1177182514
 H         -4.6838995554        2.4523750746        2.1333553829
 H         -6.1978212635        1.8315147107       -2.3893662743
 H         -4.5451034764        1.8812355911       -1.8122285335
 H         -6.3815222812        1.7359562462        0.4684433633
 H         -6.6604004890        0.4033049630       -0.6627031960
 O         -4.6517552897       -0.8193374040       -0.3497302428
 C         -3.5652394054       -1.6500033006       -0.0960191486
 O         -3.6580066701       -2.7678635892       -0.6329796574
 O         -1.6452942983        0.6365594584        1.9481175419
 C         -1.3169705631       -1.9860795779        1.0525977628
 C         -0.2439281261       -1.7808548344        0.0137716329
 C         -0.4961716510       -2.0074835604       -1.3360367882
 C          0.4936430993       -1.7915206739       -2.2771010799
 C          1.7472207719       -1.3430881155       -1.8974845652
 C          2.0040443677       -1.0979847368       -0.5555761259
 C          1.0089827213       -1.3213222542        0.3894082161
 H          1.2056324295       -1.1153009306        1.4328635328
 N          3.2765390802       -0.6523320417       -0.1509703777
 S          4.0206952655        0.5502803701       -1.0774497309
 O          3.1094034987        1.6526360583       -1.2916317686
 O          4.5615878640       -0.0603270802       -2.2658488198
 C          5.3475827921        1.0308507594        0.0096098884
 C          6.4890099199        0.2522760869        0.0443126808
 C          7.5141957916        0.6062811638        0.9066898467
 C          7.3817686960        1.7259292069        1.7147952268
 C          6.2306877711        2.4979411828        1.6676330075
 C          5.2002691453        2.1484879535        0.8087896193
 H          4.2907279822        2.7232095275        0.7340857820
 H          6.1314749358        3.3691491349        2.2950147461
 H          8.1815457942        2.0006738407        2.3842316565
 H          8.4115536551        0.0101570024        0.9454920738
 H          6.5506875514       -0.6028354209       -0.6081539645
 H          3.2876901176       -0.3950479688        0.8273327452
 H          2.5203118900       -1.1627979672       -2.6265685715
 H          0.2876020494       -1.9716792482       -3.3218804301
 H         -1.4758490474       -2.3486200409       -1.6362747320
 H         -0.9461943505       -1.5536266605        1.9955811215
 C         -1.6303245903       -3.4506506175        1.3215585654
 C         -1.1652691938       -4.5773034636        0.4534028602
 C         -0.5414734713       -4.3666049322        1.7981116742
 H         -0.7606069683       -5.0660247534        2.5904041541
 H          0.4622827441       -3.9690373331        1.8217195720
 H         -1.8398879181       -5.4081442837        0.3143441894
 H         -0.5793696932       -4.3441345648       -0.4214457944
 H         -2.6053904293       -3.5757802736        1.7808104928
