  62
        -98.94434420
 C          1.8480941905        0.7457882795        0.0968177803
 C          2.3970450003       -0.5570911305        0.1693074914
 C          3.8205365503       -0.6259752804        0.5251643812
 C          4.5033458206        0.5046623297        0.7820850801
 C          5.9494306607        0.5942335698        1.1886551298
 C          6.9337590905        0.5641994986        0.0115905797
 C          7.0923373001       -0.7962958621       -0.6681184092
 H          7.9621685900       -0.7274597228       -1.3244486993
 H          7.3120904501       -1.5540281614        0.0846344215
 C          5.8789275099       -1.2322869426       -1.5012463486
 H          5.2439919900       -0.3662140327       -1.7018781892
 H          6.2179943197       -1.6107117535       -2.4682736883
 C          5.0292939698       -2.3290063119       -0.8588643975
 H          4.1795746897       -2.5332735523       -1.5154941172
 H          5.6168097597       -3.2460512019       -0.7747190668
 C          4.4796054301       -1.9721241006        0.5285283223
 H          3.7210356400       -2.7114341702        0.7976316731
 H          5.2786467802       -2.0046080900        1.2690077422
 H          6.6190190305        1.3056523680       -0.7263212709
 H          7.9096368106        0.8706365287        0.3952227393
 H          6.0664024909        1.5466406202        1.7102236389
 H          6.1854942106       -0.2132176597        1.8823028205
 O          3.9307927108        1.7365653197        0.7220381891
 C          2.6018443508        1.8890421496        0.3611067292
 O          2.2110490510        3.0735065897        0.3238450382
 O          1.7367929901       -1.6068818306       -0.0449029076
 C          0.3930094605        0.9337974694       -0.2925989396
 C         -0.5070813595        0.1758522304        0.6521692412
 C         -0.2797153493        0.2744660816        2.0231484511
 C         -1.0695416992       -0.4127453475        2.9229818518
 C         -2.1170035794       -1.2004101677        2.4775504926
 C         -2.3624884497       -1.2945938088        1.1141183728
 C         -1.5650400997       -0.6029523998        0.2104783820
 H         -1.7725404499       -0.7076265507       -0.8410496578
 N         -3.4183783699       -2.0841022591        0.6327855836
 S         -4.3735220700       -1.5097263600       -0.6107739967
 O         -5.6198460001       -2.2323311897       -0.4743314259
 O         -3.6997449602       -1.6527249912       -1.8758955167
 C         -4.6216448396        0.2166058204       -0.2338685882
 C         -5.2347408694        0.5425051215        0.9602354016
 C         -5.4073798191        1.8783621918        1.2825513804
 C         -4.9660339891        2.8617514710        0.4100905795
 C         -4.3594382493        2.5182172298       -0.7877049103
 C         -4.1831934296        1.1828937395       -1.1145872291
 H         -3.7136738498        0.8730777386       -2.0337800389
 H         -4.0207507493        3.2844063492       -1.4670315210
 H         -5.0973351088        3.9019033713        0.6636294886
 H         -5.8823621889        2.1494582528        2.2115851903
 H         -5.5759590494       -0.2455886178        1.6115098923
 H         -3.9698458099       -2.5331112283        1.3490185341
 H         -2.7308911494       -1.7455260270        3.1782036432
 H         -0.8712041291       -0.3342228766        3.9812580917
 H          0.5387913109        0.8894929518        2.3721739104
 H          0.1838803407        2.0075950496       -0.1765439805
 C          0.2000995502        0.5546704682       -1.7463720693
 C         -0.8129614698        1.2666398576       -2.5889476597
 C          0.6490555402        1.5112482972       -2.8085806002
 H          1.1143599800        1.1140331463       -3.6983081599
 H          1.0650392504        2.4532147874       -2.4809395311
 H         -1.3566268400        0.6975470571       -3.3288265591
 H         -1.3865621296        2.0507369981       -2.1186099503
 H          0.3642312700       -0.5018749220       -1.9273135984
