  62
        -98.94576589
 C         -1.6834010006       -1.4880202030       -0.4085716205
 C         -1.5004860406       -0.2493380626       -1.0713807758
 C         -2.6763670866        0.6316266142       -1.1153943743
 C         -3.8463130474        0.2270785615       -0.5913908050
 C         -5.1382981421        0.9985327118       -0.5961748367
 C         -5.2710910339        2.0069618090        0.5527883206
 C         -4.3858472502        3.2481150008        0.4328130327
 H         -4.5317709249        3.7053058572       -0.5463477476
 H         -4.7319780977        3.9635836204        1.1814413800
 C         -2.8909592331        2.9814163738        0.6603947441
 H         -2.7609345614        2.0177827614        1.1593172888
 H         -2.4791052004        3.7392739697        1.3309874756
 C         -2.0370313272        2.9952982240       -0.6077535194
 H         -1.0105388835        2.7481778247       -0.3219737006
 H         -2.0348263086        4.0007028464       -1.0360686324
 C         -2.4950005465        2.0049296386       -1.6869372093
 H         -3.4191247815        2.3528754281       -2.1489501097
 H         -1.7185494743        1.9495497371       -2.4536830422
 H         -6.3138203131        2.3315176722        0.5832372814
 H         -5.0537401013        1.4958856038        1.4936360868
 H         -5.2517691043        1.5153874301       -1.5495167980
 H         -5.9392979672        0.2620919776       -0.5013605381
 O         -3.9954740059       -0.9885436578       -0.0009630149
 C         -2.9194669048       -1.8487030424        0.1372254815
 O         -3.1911323225       -2.9058804202        0.7425151623
 O         -0.4320765976        0.1188964632       -1.6235091307
 C         -0.5624367703       -2.4950975444       -0.1916657711
 C          0.2370732669       -2.0879544105        1.0243793091
 C          0.0924082868       -2.7852819517        2.2185829278
 C          0.7948910290       -2.4004852631        3.3462076960
 C          1.6487680582       -1.3141523608        3.3029379888
 C          1.7994305935       -0.6064211220        2.1138489255
 C          1.1013879445       -1.0019726425        0.9815488535
 H          1.1983732106       -0.4346361067        0.0720068528
 N          2.6832865579        0.4749630981        2.0510808582
 S          2.4985581121        1.7568439169        0.9906428748
 O          3.2940602312        2.8095916613        1.5913468482
 O          1.1105894467        2.0720560117        0.7598271323
 C          3.3254320895        1.1985041621       -0.4829377232
 C          2.6340462945        1.0040763107       -1.6604299269
 C          3.3298187392        0.5563041807       -2.7740779507
 C          4.6922281031        0.3171875411       -2.6927797067
 C          5.3727355806        0.5246591289       -1.5018135008
 C          4.6848650113        0.9696159145       -0.3857153195
 H          5.1751438128        1.1525390051        0.5559694467
 H          6.4330541338        0.3390369623       -1.4414276082
 H          5.2259379909       -0.0328089766       -3.5625194916
 H          2.7963480572        0.3929616038       -3.6971546094
 H          1.5694277771        1.1773509792       -1.6910157791
 H          3.0831711998        0.7600025499        2.9320605442
 H          2.1941867759       -1.0090819039        4.1831836528
 H          0.6722601541       -2.9477088795        4.2687821641
 H         -0.5929331764       -3.6195493278        2.2606063397
 H         -1.0617566887       -3.4448773283        0.0442162483
 C          0.3197066221       -2.7082326812       -1.4048280328
 C          1.1645824346       -3.9436647767       -1.4725711284
 C         -0.0214490428       -3.7955592146       -2.3767632893
 H          0.1470593069       -3.6170804387       -3.4280416958
 H         -0.8977273713       -4.3937463806       -2.1717549794
 H          2.1516942752       -3.8678262304       -1.9016491365
 H          1.0920757308       -4.6441616963       -0.6541833359
 H          0.7308932993       -1.7946690755       -1.8110939938
