  62
        -98.94437676
 C         -2.3555478717       -1.1262328716        0.2378859262
 C         -2.3859069657        0.1487322738       -0.3775919487
 C         -3.3901393473        1.0846288512        0.1460535556
 C         -4.1765847981        0.7222377334        1.1752352513
 C         -5.2266072115        1.5749577162        1.8340815451
 C         -6.5823206721        1.5638943785        1.1144831053
 C         -6.6250557088        2.3339228162       -0.2059792743
 H         -7.6755233508        2.4270930830       -0.4885601419
 H         -6.2393072736        3.3418742903       -0.0500523142
 C         -5.8628273822        1.6614093332       -1.3562106699
 H         -6.4786573749        1.6752405980       -2.2582363195
 H         -5.6805159835        0.6131251508       -1.1089320067
 C         -4.5310819627        2.3247042438       -1.7082054852
 H         -4.0607139675        1.7470021946       -2.5080259305
 H         -4.7116345234        3.3342774593       -2.0842003696
 C         -3.5398645266        2.4091387242       -0.5398948573
 H         -2.5609988830        2.6906992194       -0.9368403384
 H         -3.8590971370        3.1719692284        0.1700647640
 H         -7.3140523302        2.0083654201        1.7929531161
 H         -6.8768672711        0.5264006214        0.9410174277
 H         -5.3669182119        1.1719470826        2.8393778119
 H         -4.8656715647        2.6004261261        1.9184964331
 O         -4.0874678416       -0.4983831822        1.7668346502
 C         -3.1915341543       -1.4491663601        1.3100255407
 O         -3.2314793624       -2.5294461513        1.9320030171
 H          0.5332682930       -0.8934257629       -1.6922581358
 C          0.8545263556       -1.0878762435       -0.6815065943
 C          0.0135953775       -1.7578631576        0.1922752601
 C          0.4385833659       -1.9633659890        1.5021603007
 C          1.6765083978       -1.5136400082        1.9201374768
 C          2.5132210201       -0.8419621419        1.0449934577
 C          2.0903558700       -0.6155792392       -0.2571455422
 N          2.9260950096        0.0717258382       -1.1528740526
 S          3.7067474008        1.4596511165       -0.6257933308
 O          2.9599301480        2.1441722795        0.4043132024
 O          3.9855269093        2.2149151872       -1.8280293161
 C          5.2434270258        0.8468773181        0.0363808031
 C          5.6534057159        1.2336862155        1.2972157274
 C          6.8575676567        0.7529398289        1.7880069416
 C          7.6271643492       -0.1007391822        1.0128613781
 C          7.2030646681       -0.4771798602       -0.2529050281
 C          6.0011884827        0.0008988755       -0.7497522583
 H          5.6376835655       -0.2659721395       -1.7278873779
 H          7.8042202470       -1.1411684129       -0.8529345890
 H          8.5626584907       -0.4749282234        1.3976933774
 H          7.1884115490        1.0449823391        2.7717770154
 H          5.0187836220        1.8936604334        1.8673393427
 H          2.5056453274        0.2206365983       -2.0591349077
 H          3.4745613356       -0.4777707002        1.3682656199
 H          1.9944402040       -1.6838382843        2.9375821634
 H         -0.2245270790       -2.4682900015        2.1911506339
 C         -1.3733751513       -2.1996756490       -0.2064314317
 H         -1.6241892529       -3.0951069293        0.3774240009
 C         -1.5175690017       -2.5237407804       -1.6786087879
 C         -0.8973020699       -3.7772376153       -2.2161319095
 C         -2.3868671045       -3.6715684776       -2.0916474835
 H         -2.9753430767       -3.5734914506       -2.9916726446
 H         -2.8767728654       -4.2337328851       -1.3099458590
 H         -0.4611930668       -3.7556180378       -3.2031244062
 H         -0.3743796284       -4.4118470577       -1.5168601865
 H         -1.5257140855       -1.6474969129       -2.3146138939
 O         -1.6268110461        0.4997931099       -1.3194598814
