  62
        -98.94109057
 C         -1.1050262502       -1.2459754281       -0.2166460447
 C         -2.0080602574       -0.9259027797        0.8293741065
 C         -2.8960642876        0.2308736320        0.6245798400
 C         -2.8158480818        0.9229844467       -0.5267876539
 C         -3.5765026158        2.1364605709       -1.0206305232
 C         -4.8168808177        2.6335739862       -0.2828788010
 C         -6.0300777069        1.7085658550       -0.3801262622
 H         -6.8131553150        2.0997887617        0.2729593739
 H         -6.4075985207        1.7393296312       -1.4054380144
 C         -5.7749421786        0.2448682013       -0.0291095059
 H         -5.0513357804       -0.1798490670       -0.7278498451
 H         -6.7127837467       -0.3001197833       -0.1673376358
 C         -5.2958852577       -0.0109435298        1.3982246875
 H         -5.9993168010        0.4306038152        2.1069415852
 H         -5.2966728061       -1.0927016485        1.5573039754
 C         -3.8835468253        0.5040372987        1.7225384069
 H         -3.8995317333        1.5615346377        1.9746039931
 H         -3.5218916843       -0.0377655989        2.6011390671
 H         -5.0930844798        3.5859729151       -0.7435446785
 H         -4.5797310346        2.8452035997        0.7555853655
 H         -2.8480188311        2.9532798373       -1.0580246355
 H         -3.8436779382        1.9181645076       -2.0596028834
 O         -1.9058798721        0.6012269317       -1.4893630040
 C         -1.0365212223       -0.4686131475       -1.3709681772
 O         -0.2812613722       -0.5979889255       -2.3562373466
 H          1.6185004456       -1.0607136097       -1.3891562556
 C          1.9796169312       -1.3429653642       -0.4113903530
 C          1.1581230949       -2.0779621997        0.4316021768
 C          1.6316619853       -2.4084716556        1.6957485145
 C          2.8948420253       -2.0143364296        2.1035025608
 C          3.7067735460       -1.2726243591        1.2635100591
 C          3.2365939964       -0.9319988108        0.0026204239
 N          4.0308635574       -0.1137668873       -0.8383692350
 S          4.1405642637        1.4689756676       -0.2939122244
 O          4.6085479910        2.2473879185       -1.4177175875
 O          4.9682853172        1.4918241750        0.8851037868
 C          2.4682872692        1.9257959922        0.1305440375
 C          2.0001158220        1.6637085193        1.4027115226
 C          0.6797132410        1.9551251687        1.7025090222
 C         -0.1432968208        2.5076940007        0.7338353762
 C          0.3418681867        2.7646246767       -0.5388200517
 C          1.6576144617        2.4623609567       -0.8485856137
 H          2.0690251850        2.6447437876       -1.8286339432
 H         -0.3005607232        3.1856704219       -1.2958658327
 H         -1.1703492196        2.7334615443        0.9746898775
 H          0.2930566971        1.7458627103        2.6869987825
 H          2.6724234501        1.2443275484        2.1330363199
 H          3.6877937681       -0.1008172302       -1.7899325816
 H          4.6814567580       -0.9301328601        1.5712194072
 H          3.2482618518       -2.2807048307        3.0879385044
 H          0.9944280262       -2.9642330462        2.3678750099
 C         -0.2300461466       -2.4719470484       -0.0094126700
 H         -0.6995231744       -3.0215085624        0.8172304327
 C         -0.1796279115       -3.3811799143       -1.2219200317
 C          0.2040945900       -4.8175691703       -1.0372348822
 C         -1.2106858193       -4.4568669252       -1.3757357864
 H         -1.5795980410       -4.6786419006       -2.3659461371
 H         -1.9590976710       -4.5469148597       -0.6018933180
 H          0.8103209571       -5.2900471068       -1.7947524528
 H          0.4144392631       -5.1539605730       -0.0333493820
 H          0.1535416083       -2.8828405503       -2.1229348823
 O         -2.0758924118       -1.5895404888        1.8974576969
