  62
        -98.94356337
 C         -1.8103578057       -1.1486746624        0.4494774171
 C         -2.7456538755       -1.0136759446       -0.6056428504
 C         -4.0263851899       -0.3837454541       -0.2480247852
 C         -4.2281011591        0.0414369808        1.0119177364
 C         -5.4619178873        0.7465731437        1.4939940104
 C         -5.3202915099        2.2693290098        1.3611701920
 C         -4.8327735279        2.7271251817       -0.0136337031
 H         -4.8018391222        3.8188688885       -0.0006827587
 H         -3.8075450031        2.3800360013       -0.1635677499
 C         -5.7035337732        2.2540544338       -1.1860074046
 H         -6.6835911532        1.9467672238       -0.8191619315
 H         -5.8608927275        3.0941041728       -1.8657919709
 C         -5.0929570901        1.1206666233       -2.0124030905
 H         -4.0736248652        1.3872721402       -2.3033952918
 H         -5.6782335242        1.0164321951       -2.9298802472
 C         -5.0565754393       -0.2547716492       -1.3345895986
 H         -6.0496074563       -0.5047880025       -0.9556916529
 H         -4.7826097439       -0.9910390237       -2.0957709795
 H         -6.2879168087        2.7262350892        1.5765370022
 H         -4.6059157704        2.6179205981        2.1107682142
 H         -6.3194332181        0.3998246107        0.9207044899
 H         -5.6133772743        0.4953204239        2.5451765524
 O         -3.2948469889       -0.0790794650        1.9907799758
 C         -2.0651696118       -0.6577377782        1.7316375848
 O         -1.2914278003       -0.6779579473        2.7116237764
 H          0.7549266527        0.3740380330        1.1876360270
 C          0.9500138303        0.2762832069        0.1268350743
 C          0.4017483223       -0.8001173720       -0.5604952482
 C          0.6477285011       -0.9152764401       -1.9219658114
 C          1.4186974093        0.0313882016       -2.5757479464
 C          1.9707381790        1.0962578689       -1.8872305868
 C          1.7323776304        1.2164141000       -0.5240304980
 N          2.3485224191        2.2666243828        0.1940697490
 S          4.0277320362        2.1777620387        0.1952919840
 O          4.4591133607        2.8676354412        1.3902222642
 O          4.5278945146        2.6973031992       -1.0519673763
 C          4.3589205071        0.4283445002        0.3076071959
 C          4.6986017383       -0.2780716231       -0.8283673434
 C          4.8323197367       -1.6545754866       -0.7450101370
 C          4.6210980022       -2.2973245538        0.4647871234
 C          4.2881056026       -1.5726808875        1.5990424389
 C          4.1492984042       -0.1966011253        1.5207901845
 H          3.8899185419        0.3992938928        2.3816929852
 H          4.1256507659       -2.0744251529        2.5397362880
 H          4.7170167374       -3.3701050289        0.5259623479
 H          5.0915098047       -2.2216612746       -1.6242716906
 H          4.8512757636        0.2601792991       -1.7490493259
 H          2.0159515952        2.3346641705        1.1460600997
 H          2.5905770655        1.8306798805       -2.3759739515
 H          1.5960845792       -0.0648482790       -3.6359459735
 H          0.2209917606       -1.7371386036       -2.4719205883
 C         -0.4432212766       -1.7753140100        0.2219724270
 H          0.0059652676       -1.8732059688        1.2197175348
 C         -0.5246919094       -3.1499441469       -0.4053528568
 C          0.6915388050       -4.0250057043       -0.3782710082
 C         -0.4905471926       -4.3571671761        0.4805810570
 H         -1.1005179296       -5.2073633567        0.2143487544
 H         -0.4125601955       -4.1946285063        1.5458757856
 H          0.8967385352       -4.6504353832       -1.2331600614
 H          1.5738591625       -3.6297553427        0.1025934688
 H         -1.1657799727       -3.1909264840       -1.2761893959
 O         -2.5381638104       -1.3991107880       -1.7845378648
