  62
        -98.94105388
 C         -1.7369642597       -1.0734037865        0.0026195605
 C         -2.1715090351        0.1153793066       -0.6344132335
 C         -3.6273900342        0.2587435343       -0.7877095209
 C         -4.4521134510       -0.7081089476       -0.3490367523
 C         -5.9527337005       -0.7133223924       -0.4580484935
 C         -6.6613834467        0.0545410663        0.6662186114
 C         -6.5438647067        1.5773208126        0.5888115641
 H         -6.8441632296        1.9140349414       -0.4039546669
 H         -7.2592406303        1.9902572978        1.3028362834
 C         -5.1471919375        2.1225321971        0.9188861470
 H         -5.2389400937        2.9702748197        1.6015665751
 H         -4.5695029502        1.3548539059        1.4388088169
 C         -4.3501978390        2.6031818086       -0.2940268702
 H         -3.3645306157        2.9283064131        0.0493501415
 H         -4.8507886406        3.4633021101       -0.7443807513
 C         -4.1435124948        1.5364204504       -1.3771904609
 H         -5.0743749403        1.3606068485       -1.9161657475
 H         -3.3940937940        1.9052402194       -2.0821065694
 H         -7.7206075193       -0.2092829099        0.6233543195
 H         -6.2710185544       -0.2925668804        1.6256806143
 H         -6.2519310942       -0.3058141208       -1.4241076974
 H         -6.2642482853       -1.7590257212       -0.4097511132
 O         -3.9947972014       -1.8377616963        0.2537117387
 C         -2.6403331182       -2.0308097839        0.4729791636
 O         -2.3689570600       -3.0793461733        1.0909476962
 H          1.7575999431        0.1652770644       -0.8700632712
 C          1.4418069884        0.5223799285        0.0949768262
 C          0.4141782590       -0.1052080885        0.7795893711
 C         -0.0037963299        0.4321231715        1.9949304839
 C          0.5832644401        1.5741751065        2.5024001099
 C          1.6191147443        2.1913358859        1.8223988780
 C          2.0442285992        1.6625532517        0.6104583693
 N          3.0918043688        2.2607989633       -0.1024057123
 S          4.1558707313        1.3212965221       -0.9765425631
 O          5.3685040114        2.1105376262       -1.0335640895
 O          3.5914905382        0.9536011506       -2.2503302541
 C          4.4280332305       -0.1394541323        0.0135265646
 C          4.8392167957        0.0165937108        1.3225184419
 C          5.0442143627       -1.1113844403        2.1000420265
 C          4.8389514520       -2.3709951279        1.5581571053
 C          4.4356317975       -2.5119537826        0.2396209021
 C          4.2264971736       -1.3864019597       -0.5415340178
 H          3.9072477081       -1.4502712151       -1.5697697357
 H          4.2790511805       -3.4926027779       -0.1812211695
 H          4.9952828022       -3.2484307765        2.1655782054
 H          5.3606473914       -1.0057721178        3.1251519245
 H          4.9981538513        1.0080429523        1.7138666958
 H          3.5472078529        3.0327003637        0.3604189086
 H          2.0820441434        3.0827383776        2.2174526129
 H          0.2390354625        1.9852378086        3.4395108229
 H         -0.8098044867       -0.0533029562        2.5289380692
 C         -0.2668335455       -1.3502209453        0.2681671878
 H         -0.2617349440       -2.0930112862        1.0832088417
 C          0.4696457315       -1.9866503804       -0.9006824156
 C         -0.2394169648       -2.8679585850       -1.8836461211
 C          0.2754822910       -1.5285017563       -2.3134997315
 H          1.1375985066       -1.4858287539       -2.9640654037
 H         -0.4329928275       -0.7340102870       -2.4878237247
 H         -1.3063714595       -2.9924566295       -1.7675861833
 H          0.2669593166       -3.7536765009       -2.2365597857
 H          1.4745853415       -2.2895173817       -0.6218188064
 O         -1.4037674504        1.0169595881       -1.0578265246
