  62
        -98.93790298
 C         -1.4524337530       -0.8373214753       -0.0818511535
 C         -2.7250204947       -1.4526483313       -0.0641716137
 C         -3.8490339707       -0.5999180539        0.3520377481
 C         -3.6076816681        0.6774893215        0.6997823783
 C         -4.6532375210        1.6910956295        1.0698391283
 C         -5.3565259594        2.2102947491       -0.2004707173
 C         -6.8381494375        1.8455164224       -0.2941764624
 H         -7.1673329244        2.0714698274       -1.3107153419
 H         -7.4052958706        2.4853169033        0.3852657864
 C         -7.1892682045        0.3904590539        0.0312291062
 H         -8.2056572258        0.2201981572       -0.3303886572
 H         -7.2178267379        0.2525750419        1.1131728402
 C         -6.2664141083       -0.6747789932       -0.5749172237
 H         -5.7693233435       -0.2915466269       -1.4663330663
 H         -6.8840883263       -1.5170513272       -0.8935143415
 C         -5.2108320042       -1.2363342449        0.3960819702
 H         -5.0352338065       -2.2879237379        0.1498797589
 H         -5.5992540475       -1.1998330486        1.4178256137
 H         -4.8279686120        1.8148864646       -1.0703230447
 H         -5.2692089750        3.2967926424       -0.2469840491
 H         -4.1460405610        2.5075624951        1.5840183524
 H         -5.3741533131        1.2445201077        1.7509955091
 O         -2.3664607697        1.2286040640        0.6822853416
 C         -1.2559990945        0.4919512736        0.2933950436
 O         -0.1830249733        1.1190483162        0.3273783745
 O         -2.9120193825       -2.6608772676       -0.3747408710
 C         -0.2436923924       -1.6454766103       -0.5157103450
 C          0.8119974761       -1.6169191905        0.5607279217
 C          0.4473907975       -1.9008754694        1.8748829704
 C          1.3806503205       -1.8584278298        2.8915684173
 C          2.6962349041       -1.5207582846        2.6240462555
 C          3.0736228139       -1.2510426031        1.3148428255
 C          2.1370945687       -1.3157282728        0.2913842704
 H          2.4635753509       -1.1278072981       -0.7166383738
 N          4.4001104249       -0.9235891624        1.0089867523
 S          4.7779168085        0.0525378374       -0.2896531570
 O          4.6776488576       -0.6971424000       -1.5174008946
 O          6.0980461145        0.5571430434        0.0259036718
 C          3.6055612856        1.3959209476       -0.2913307149
 C          2.9022499429        1.6800597203       -1.4429842179
 C          2.0128247027        2.7411990999       -1.4416785649
 C          1.8403753077        3.4944776432       -0.2926093443
 C          2.5563474985        3.1984461936        0.8557747006
 C          3.4497194171        2.1408968439        0.8595174861
 H          4.0227243059        1.8906315009        1.7378238988
 H          2.4135076287        3.7839836204        1.7498603356
 H          1.1368872025        4.3119136460       -0.2903106115
 H          1.4487104086        2.9698002962       -2.3323023079
 H          3.0596671729        1.0631050625       -2.3141015919
 H          5.0016975833       -0.7596441163        1.8018261989
 H          3.4235738682       -1.4711363869        3.4197353661
 H          1.0810971395       -2.0787434122        3.9052029787
 H         -0.5836757647       -2.1482628538        2.0885055486
 H         -0.6012548950       -2.6798654940       -0.6277969249
 C          0.2559809530       -1.1510898535       -1.8570897693
 C          0.9802594717       -2.0786322538       -2.7848436153
 C         -0.4114782874       -1.6281476816       -3.1105050099
 H         -0.5524888947       -0.9272557498       -3.9195825213
 H         -1.2175144131       -2.3393784602       -3.0033986017
 H          1.8032894660       -1.6906495007       -3.3667294203
 H          1.1202347341       -3.0991266441       -2.4613567926
 H          0.5716045264       -0.1137498467       -1.8212688084
