  62
        -98.93570437
 C         -0.8522300744       -1.5840842890        0.2043974311
 C         -1.0472657190       -0.3373955009       -0.4471905945
 C         -2.2413329032        0.4205504919       -0.0379934112
 C         -2.9594388012        0.0311980503        1.0273061557
 C         -4.1604664040        0.7329661769        1.5982791711
 C         -5.4813292367        0.3506297842        0.9165700499
 C         -5.6646096040        0.9059389948       -0.4964370270
 H         -6.7077080905        0.7405117737       -0.7733411610
 H         -5.4972710306        1.9832931319       -0.4873372112
 C         -4.7643503574        0.2530827889       -1.5549243425
 H         -5.3579079597        0.0112823778       -2.4396816672
 H         -4.3722670720       -0.6906352635       -1.1679692009
 C         -3.5960840565        1.1243334598       -2.0184282235
 H         -3.9818460422        2.0101058817       -2.5278990851
 H         -3.0085323928        0.5527050290       -2.7423767137
 C         -2.6555751618        1.5789048603       -0.8933685843
 H         -1.7541890385        1.9974742636       -1.3459639525
 H         -3.1367469158        2.3475526965       -0.2901574681
 H         -6.2942656068        0.7283809051        1.5409220363
 H         -5.5599202949       -0.7388582323        0.8927727545
 H         -4.0182211957        1.8118495300        1.5378285387
 H         -4.2196815333        0.4445780156        2.6497712587
 O         -2.6396278057       -1.0799987670        1.7405417754
 C         -1.6499056730       -1.9400410302        1.3033473783
 O         -1.5607711603       -2.9809116044        1.9873472750
 O         -0.2973340861        0.1584642759       -1.3275095432
 C          0.1803659277       -2.6455331561       -0.1500274571
 C          1.5939388831       -2.3148055924        0.2744144358
 C          2.3759665846       -3.3000883843        0.8706643941
 C          3.6708511138       -3.0270121779        1.2702536274
 C          4.2051285274       -1.7619670236        1.1030602144
 C          3.4296699308       -0.7686422992        0.5152921710
 C          2.1398591135       -1.0549201896        0.0866603506
 H          1.5658058558       -0.2885848643       -0.4055787003
 N          3.9176897007        0.5355656823        0.4121221521
 S          3.2706020510        1.7280873526       -0.5466378695
 O          3.0316031691        1.2686127832       -1.8933654149
 O          4.2247250659        2.8139053720       -0.4292932104
 C          1.7587206018        2.2460327437        0.2436929182
 C          0.9820392436        3.1571100173       -0.4427337392
 C         -0.1694318383        3.6460726580        0.1518944311
 C         -0.5310996688        3.2079219210        1.4159998962
 C          0.2566601015        2.2905505400        2.0911992799
 C          1.4189874637        1.8106222851        1.5077432573
 H          2.0430387299        1.0964031531        2.0195552782
 H         -0.0294492321        1.9427110489        3.0714190870
 H         -1.4317902391        3.5810579029        1.8774265278
 H         -0.7822330045        4.3613448561       -0.3733472374
 H          1.2891242273        3.4566232215       -1.4322981698
 H          4.8768314831        0.6950333095        0.6746713499
 H          5.2089359282       -1.5399297197        1.4311655486
 H          4.2678658287       -3.8019000114        1.7266036191
 H          1.9560872699       -4.2829489659        1.0281845579
 H         -0.1285074553       -3.5061482983        0.4637835219
 C          0.1973327424       -3.1673585429       -1.5863369222
 C         -0.8933504703       -2.8994252741       -2.5764793684
 C          0.4763531868       -2.3305625579       -2.7957644352
 H          1.0932657699       -2.7562142207       -3.5744277924
 H          0.6062908177       -1.2692503731       -2.6607944952
 H         -1.2332253278       -3.7102979260       -3.2041590793
 H         -1.6754453792       -2.2128545337       -2.2863380420
 H          0.6193676748       -4.1686058444       -1.6171909372
