  62
        -98.93394334
 C         -2.3275514449       -1.4562144107       -0.0712236370
 C         -3.1895278436       -0.9299723204        0.9261285098
 C         -4.1729074942        0.0725529064        0.4924056850
 C         -4.2023608292        0.4383786147       -0.8015148204
 C         -5.0909540034        1.4960137824       -1.3920139948
 C         -4.5471081188        2.8969434149       -1.0462565906
 C         -5.4575366785        3.7182027157       -0.1329181989
 H         -4.8828764247        4.5814275993        0.2096852026
 H         -6.3000926138        4.0938036781       -0.7173592928
 C         -6.0232263888        2.9801189633        1.0841728820
 H         -6.4181202416        3.7404933360        1.7612199388
 H         -6.8708819853        2.3648394283        0.7789082284
 C         -5.0313940676        2.1004806311        1.8564863025
 H         -4.0080087793        2.4424091777        1.6983965807
 H         -5.2404109067        2.2087837746        2.9227042022
 C         -5.1223754138        0.5974319614        1.5335977851
 H         -6.1483939088        0.3470183004        1.2498170037
 H         -4.8838441550        0.0310028715        2.4386118196
 H         -3.5678975991        2.7790793156       -0.5763763108
 H         -4.3858145699        3.4621466948       -1.9656196425
 H         -5.0986822008        1.3476879557       -2.4720813248
 H         -6.1045521813        1.3755876958       -1.0159033515
 O         -3.3538086190       -0.0752984833       -1.7272886382
 C         -2.3984704603       -1.0297813660       -1.3972332687
 O         -1.7056337367       -1.3906950738       -2.3675616114
 O         -3.1454136310       -1.2982754814        2.1306854530
 C         -1.3406915883       -2.5209366392        0.3781922861
 C          0.0150406317       -1.9308343979        0.6702543496
 C          0.6271984025       -2.1203433293        1.9035315852
 C          1.8704817004       -1.5704330384        2.1640894888
 C          2.5301203767       -0.8278666556        1.2011669987
 C          1.9227480358       -0.6241591807       -0.0312041388
 C          0.6741501982       -1.1722669094       -0.2878508615
 H          0.2046398227       -1.0108622390       -1.2473523234
 N          2.5873316693        0.1152626338       -1.0253306114
 S          3.2242133033        1.6112394637       -0.6078984461
 O          2.4855856898        2.2173049303        0.4765474546
 O          3.2829272172        2.3599637746       -1.8442209331
 C          4.8825455697        1.2281752583       -0.0833907467
 C          5.3278977661        1.6401823525        1.1573036582
 C          6.6244591516        1.3323968231        1.5399116478
 C          7.4480681855        0.6228073100        0.6795152696
 C          6.9865250706        0.2192144420       -0.5647012411
 C          5.6922223518        0.5248283184       -0.9538111313
 H          5.2959149219        0.2328009160       -1.9119930344
 H          7.6297065074       -0.3324655370       -1.2312671140
 H          8.4557231200        0.3829523077        0.9801594590
 H          6.9851758214        1.6460995255        2.5062969721
 H          4.6496845871        2.1843023193        1.7953303590
 H          2.0685511981        0.1754216489       -1.8901584528
 H          3.4991335316       -0.3990583660        1.3973947139
 H          2.3330199004       -1.7237538988        3.1270456144
 H          0.1144188580       -2.6898119920        2.6647871432
 H         -1.7515696731       -2.8857582187        1.3327329499
 C         -1.2827762290       -3.7114160574       -0.5711083780
 C         -0.0876775253       -4.0669762724       -1.3989417834
 C         -0.4524794066       -4.9096752500       -0.2162561964
 H         -0.8633426871       -5.8936157613       -0.3834619038
 H          0.1739096658       -4.8328710261        0.6597437441
 H         -0.2675964922       -4.4524386750       -2.3910160467
 H          0.7900625040       -3.4444397257       -1.3293132054
 H         -2.2496930323       -3.9080591847       -1.0239941557
