  62
        -98.93791306
 C         -1.2760276404       -1.3549451606        0.1549771895
 C         -1.5041536097       -0.0231972806        0.5827805298
 C         -2.6956667193        0.6664442802        0.0522318999
 C         -3.4791620696        0.0142209609       -0.8261584303
 C         -4.7544960793        0.4857822618       -1.4733246902
 C         -5.9552641694        0.4452199122       -0.5150150403
 C         -5.6797374591        0.9937965217        0.8824227399
 H         -6.5718040993        0.8178229220        1.4895476298
 H         -4.8640207995        0.4271606911        1.3351087398
 C         -5.3588997483        2.4853523115        0.9447948503
 H         -6.1900255280        3.0487260421        0.5145777804
 H         -5.2871962482        2.7562485012        2.0014230503
 C         -4.0641052480        2.9212796509        0.2548906704
 H         -4.1937295180        2.9801886513       -0.8222684296
 H         -3.8409711575        3.9358835107        0.5973741307
 C         -2.8456141185        2.0677942402        0.5922502703
 H         -2.7563320486        1.9835228099        1.6813820303
 H         -1.9432875282        2.5984941398        0.2696212304
 H         -6.7789368891        0.9979850328       -0.9701296802
 H         -6.2672348200       -0.5966057877       -0.4077349906
 H         -4.6208023988        1.4822952218       -1.8832892500
 H         -4.9521102897       -0.1930533679       -2.3058345004
 O         -3.2056880903       -1.2569676192       -1.2321640406
 C         -2.1179591007       -1.9743394299       -0.7682043607
 O         -2.0333477213       -3.1189399698       -1.2548213110
 O         -0.7473059594        0.5721337388        1.3962515900
 C         -0.0592841008       -2.0583428714        0.7318454793
 C          1.1010824193       -1.9724747918       -0.2296066506
 C          1.1164092489       -2.6877185415       -1.4229490408
 C          2.1910631990       -2.5802600119       -2.2861152007
 C          3.2626152194       -1.7580861426       -1.9837202704
 C          3.2542638198       -1.0365543229       -0.7955371203
 C          2.1767795397       -1.1496945425        0.0725812597
 H          2.1816251700       -0.5882956627        0.9947128898
 N          4.3318518502       -0.2090148335       -0.4597526900
 S          4.1579808409        1.1093474863        0.5407947503
 O          5.3315564614        1.9125906557        0.2669764206
 O          4.0045306606        0.6816324160        1.9089429302
 C          2.7066501715        1.9952293672       -0.0003704095
 C          1.8954510317        2.5801186674        0.9492572306
 C          0.8107078422        3.3351681382        0.5351836807
 C          0.5525678523        3.4850211186       -0.8177814392
 C          1.3723368620        2.8847780084       -1.7608998693
 C          2.4648803416        2.1380342077       -1.3522046195
 H          3.1200896414        1.6698760875       -2.0686700896
 H          1.1638372421        2.9980644988       -2.8128260893
 H         -0.2928278873        4.0726511292       -1.1416002791
 H          0.1707226024        3.7941533283        1.2714797708
 H          2.1180151716        2.4263338971        1.9927712606
 H          5.0260280404       -0.0717721238       -1.1783339699
 H          4.1011627295       -1.6771146529       -2.6583382604
 H          2.1933863987       -3.1407486317       -3.2087156608
 H          0.2722830886       -3.3110476610       -1.6733923610
 H          0.2117791794       -1.4774861018        1.6243589195
 C         -0.3249039217       -3.4887865714        1.1560207890
 C          0.6189808079       -4.1407361521        2.1198248588
 C         -0.7637256119       -3.7667269115        2.5608721689
 H         -1.4836805823       -4.5535398311        2.7292155486
 H         -0.8751086014       -2.9236255116        3.2273985591
 H          0.8514165774       -5.1860624322        1.9865070586
 H          1.4455150883       -3.5497330827        2.4861135290
 H         -0.7514532320       -4.1028781809        0.3742519988
