  62
        -98.93628247
 C          1.7711280459        0.1890932699       -0.3027426728
 C          2.9089508610        0.4456901327       -1.1025761750
 C          4.2046035902        0.4395669521       -0.4071103617
 C          4.2341572773        0.2094955387        0.9185406164
 C          5.4773118107        0.0981772241        1.7550070329
 C          6.1389611830       -1.2776695241        1.5374612075
 C          7.5138004959       -1.2178137832        0.8715327059
 H          7.7805151086       -2.2358499431        0.5798065876
 H          8.2496247060       -0.8820896539        1.6053007829
 C          7.6230540074       -0.3038572181       -0.3528067082
 H          8.5521100883       -0.5659144961       -0.8636380373
 H          7.7285493938        0.7327220471       -0.0291270457
 C          6.4675505474       -0.3886032065       -1.3583810567
 H          5.9655677941       -1.3537225487       -1.2878221575
 H          6.8872167806       -0.3216878057       -2.3642502079
 C          5.4253479986        0.7383790974       -1.2330620275
 H          5.0375828290        0.9673136254       -2.2302951661
 H          5.9099397834        1.6429688194       -0.8547796459
 H          5.4664407655       -1.8889113995        0.9321980739
 H          6.2463004568       -1.7854424202        2.4971165456
 H          6.1666241855        0.8993225176        1.4974772616
 H          5.1786275534        0.2157146258        2.7968149212
 O          3.1169048989       -0.0273012369        1.6540570101
 C          1.8587807654       -0.0417309466        1.0698578851
 O          0.9252838298       -0.2651765868        1.8622426660
 H         -2.2550661289        0.0094009377       -0.2297146465
 C         -1.8226955421        0.9743451929       -0.0244190801
 C         -0.4931307097        1.2240489307       -0.3264400052
 C          0.0229041894        2.4901581073       -0.0602252435
 C         -0.7640067624        3.4688076544        0.5135869169
 C         -2.0901111099        3.2138890649        0.8165907148
 C         -2.6206148753        1.9607626719        0.5404030543
 N         -3.9578210971        1.6663689142        0.8432979268
 S         -4.8800140502        0.7711662047       -0.2266393583
 O         -4.4940663996        1.0144043182       -1.5968875612
 O         -6.2493487675        1.0976946936        0.1124423370
 C         -4.5778194361       -0.9292581938        0.2052988529
 C         -4.5576117583       -1.8765000214       -0.7992202305
 C         -4.3747453519       -3.2088072737       -0.4625427023
 C         -4.2158398823       -3.5685641056        0.8666619161
 C         -4.2404744694       -2.6050723970        1.8636302111
 C         -4.4279353166       -1.2721873905        1.5342990684
 H         -4.4487219030       -0.4995338299        2.2843971988
 H         -4.1128038787       -2.8878248216        2.8961923779
 H         -4.0702898556       -4.6051981071        1.1267716156
 H         -4.3554395113       -3.9592576007       -1.2370472211
 H         -4.6730650684       -1.5510824338       -1.8209111577
 H         -4.4836360913        2.4310742000        1.2405936983
 H         -2.7079908194        3.9779416383        1.2636520312
 H         -0.3449672260        4.4420352609        0.7213145833
 H          1.0565566013        2.6949895103       -0.3041740639
 C          0.4005159991        0.1821416126       -0.9531049537
 H          0.5716977389        0.4708948981       -2.0015058808
 C         -0.1857355432       -1.2140738635       -0.9231307790
 C         -1.1211293363       -1.6696107423       -2.0016856391
 C          0.2739380981       -2.2127676997       -1.9412489173
 H          0.4159546762       -3.2370900749       -1.6315618944
 H          0.9887847127       -1.8753207125       -2.6775851175
 H         -1.3634323493       -0.9662368716       -2.7843811919
 H         -1.9366451180       -2.3224605367       -1.7296132597
 H         -0.3570541194       -1.5695518437        0.0869830482
 O          2.8427860930        0.6780263295       -2.3406694211
