  62
        -98.94600004
 C          1.9364714258        1.3162408010        0.1944820825
 C          1.7531276749       -0.0855067392        0.1323107297
 C          2.9389910844       -0.8952840737        0.4375926313
 C          4.0994081150       -0.2913278696        0.7522536800
 C          5.3906581705       -0.9814484438        1.0996369415
 C          6.2168595704       -1.4106591852       -0.1207644842
 C          5.6610206624       -2.6054737174       -0.8968924858
 H          5.4670149146       -3.4270260315       -0.2066909844
 H          6.4449286737       -2.9342552055       -1.5821000339
 C          4.3937359423       -2.3006961722       -1.7080469885
 H          4.4932951187       -2.7219442519       -2.7110368122
 H          4.2873930368       -1.2196682492       -1.8253390424
 C          3.1051490693       -2.8616871591       -1.1065856592
 H          3.1447526297       -3.9532479532       -1.1093051386
 H          2.2694482521       -2.5526975837       -1.7397589938
 C          2.8196966958       -2.3850502849        0.3232464703
 H          3.4931789215       -2.8761608762        1.0251489861
 H          1.7915285140       -2.6536969520        0.5771322693
 H          7.2154652113       -1.6708953501        0.2377934446
 H          6.3183644379       -0.5551069186       -0.7925556716
 H          5.9789920735       -0.2665240143        1.6788464818
 H          5.1858478923       -1.8504662502        1.7255192092
 O          4.2301608572        1.0612311460        0.8110953252
 C          3.1608735674        1.8953859224        0.5261831021
 O          3.4200160824        3.1131163916        0.6114128718
 H         -1.8704725654        1.7834766635       -0.8086904217
 C         -1.6808497501        1.7044340250        0.2481621520
 C         -0.4075476313        1.9014428559        0.7576282889
 C         -0.2164824213        1.7997036136        2.1339723195
 C         -1.2686613763        1.4887172903        2.9722970581
 C         -2.5340134408        1.2659019952        2.4564910936
 C         -2.7388009861        1.3757209513        1.0870377771
 N         -4.0212911503        1.1930049601        0.5412951303
 S         -4.2896101441        0.1883336556       -0.7686144770
 O         -3.5125404861        0.6288648645       -1.8977043190
 O         -5.7262933385        0.1996859637       -0.9395754435
 C         -3.7757276562       -1.4368166398       -0.2402829718
 C         -2.4309509124       -1.7372387777       -0.1565259708
 C         -2.0589392703       -2.9967752285        0.2882126336
 C         -3.0240205686       -3.9273223266        0.6390247640
 C         -4.3707523286       -3.6073026131        0.5514244278
 C         -4.7514624753       -2.3504031511        0.1116121433
 H         -5.7857069016       -2.0594215241        0.0222366202
 H         -5.1218435861       -4.3313155511        0.8238051617
 H         -2.7245686054       -4.9055387421        0.9813146007
 H         -1.0082098842       -3.2302192829        0.3546626067
 H         -1.6825233821       -1.0092379621       -0.4260170492
 H         -4.7424705264        1.0421229613        1.2324052490
 H         -3.3561374573        1.0153472213        3.1096378118
 H         -1.1029315359        1.4112320654        4.0363274670
 H          0.7745208010        1.9647466211        2.5354851971
 C          0.7738144137        2.2403334852       -0.1184916364
 H          1.1112339872        3.2556246970        0.1373201057
 C          0.4601290060        2.1932227293       -1.5997318360
 C         -0.1407750135        3.3830111406       -2.2834687106
 C          1.2865291123        3.0090913327       -2.5457456675
 H          1.5423549984        2.5853565570       -3.5054425955
 H          2.0648090258        3.6248938188       -2.1182313992
 H         -0.3323057398        4.2602876616       -1.6839991446
 H         -0.8706898105        3.2134806845       -3.0610541493
 H          0.1505470993        1.2087483196       -1.9336942513
 O          0.6587464507       -0.6337388968       -0.1563909934
