  62
        -98.93699442
 C         -1.2735461557       -1.6480012366       -0.0460781107
 C         -1.5397762235       -0.4221689102       -0.7000695122
 C         -2.8419288778        0.2161287402       -0.4099691169
 C         -3.7120067707       -0.3991872048        0.4088816658
 C         -5.0886965937        0.0421969543        0.8375876085
 C         -5.9993714326        0.6103695847       -0.2617782388
 C         -6.2420695517        2.1146830455       -0.1315293219
 H         -6.3690027954        2.3563518934        0.9257903225
 H         -7.1772866710        2.3639532263       -0.6377613516
 C         -5.1461736406        2.9995099208       -0.7231745906
 H         -5.3631270761        4.0316133875       -0.4379385611
 H         -5.1892572993        2.9480980998       -1.8133099801
 C         -3.7208902064        2.6593411538       -0.2818235070
 H         -3.6940252472        2.4123428115        0.7789723106
 H         -3.1061202074        3.5534774170       -0.4091579725
 C         -3.0723667067        1.5332327698       -1.0998416818
 H         -2.0764571877        1.8529150784       -1.4228230049
 H         -3.6446454340        1.3584026156       -2.0161451625
 H         -6.9642134990        0.1058628777       -0.1894710440
 H         -5.5853709208        0.3779693560       -1.2417630100
 H         -4.9847866156        0.7689773712        1.6470866856
 H         -5.5462967958       -0.8477657247        1.2759317030
 O         -3.4199113011       -1.5883163134        1.0100588832
 C         -2.2097451906       -2.2233937270        0.8170714582
 O         -2.0886759703       -3.2935792873        1.4478961686
 O         -0.7473605738        0.1404284283       -1.5014481203
 C          0.0197507534       -2.4309499445       -0.1945126483
 C          1.0846249289       -1.9633819338        0.7716697930
 C          1.8970844843       -2.8889766084        1.4178176572
 C          2.8903049918       -2.4709626164        2.2840909054
 C          3.1003846538       -1.1234225675        2.5137906721
 C          2.2908107320       -0.1888630554        1.8776434629
 C          1.2904538796       -0.6136206121        1.0134953963
 H          0.6599205942        0.1233279120        0.5445017852
 N          2.4677095212        1.1805438846        2.1135637911
 S          2.2328002647        2.3038191691        0.8954770091
 O          2.9505604400        3.4722020191        1.3640252107
 O          0.8268263243        2.4909725632        0.6495720363
 C          3.0742859191        1.6234230187       -0.5215986646
 C          2.3689992294        1.1089916986       -1.5890536002
 C          3.0756626123        0.5539619789       -2.6460861003
 C          4.4603511468        0.5214143448       -2.6175706837
 C          5.1536396285        1.0488909991       -1.5381947276
 C          4.4558204503        1.6040647079       -0.4793051174
 H          4.9569434938        2.0378205657        0.3708657325
 H          6.2313078196        1.0270179787       -1.5195501304
 H          5.0016712566        0.0850317995       -3.4422425759
 H          2.5331259133        0.1465464531       -3.4847285938
 H          1.2903213485        1.1344713018       -1.5830734734
 H          3.2660972760        1.4136711963        2.6851654969
 H          3.8742095269       -0.7940043886        3.1900556924
 H          3.5090781130       -3.2000282990        2.7844300800
 H          1.7332446864       -3.9429995543        1.2513081367
 H         -0.2319039419       -3.4675292096        0.0708737218
 C          0.5835013420       -2.4232341902       -1.6035291960
 C          1.4359527963       -3.5651168034       -2.0643930767
 C          0.0535072554       -3.3906360891       -2.6166927358
 H         -0.0634745420       -3.0550187449       -3.6359926685
 H         -0.7153977950       -4.0784519835       -2.2948923434
 H          2.2771937386       -3.3503506919       -2.7048879150
 H          1.6036357470       -4.3799836208       -1.3771175668
 H          0.8402094049       -1.4319625633       -1.9501942277
