  62
        -98.94133415
 C         -2.4559205347       -1.2738605646        0.0690991657
 C         -3.0229499816       -0.4586017712        1.0838468087
 C         -3.7123888314        0.7554339962        0.6378024418
 C         -3.7812400342        1.0355114579       -0.6757694031
 C         -4.4627464490        2.2252079525       -1.2949930353
 C         -3.6012816921        3.4954277176       -1.3132585823
 C         -3.4142866845        4.1740419673        0.0443225803
 H         -2.9888301383        5.1609169389       -0.1481759655
 H         -4.3878899999        4.3235157187        0.5122834510
 C         -2.4875565449        3.4194431505        1.0080633307
 H         -1.8839728458        2.6990495698        0.4493543471
 H         -1.7885977426        4.1232751745        1.4659815042
 C         -3.2078939678        2.6931914672        2.1445738413
 H         -2.4592792018        2.1574738950        2.7337518266
 H         -3.6918998952        3.4241052161        2.7962244370
 C         -4.2620509462        1.6791732007        1.6821975143
 H         -4.5525524788        1.0713014964        2.5424857853
 H         -5.1430363522        2.1977589451        1.3047052869
 H         -2.6225409042        3.2496963325       -1.7334153915
 H         -4.0836715323        4.2065398985       -1.9880598968
 H         -4.6928145807        1.9501349178       -2.3266095993
 H         -5.3977897654        2.4258070169       -0.7711167185
 O         -3.2358724120        0.2264240208       -1.6204905393
 C         -2.5379201759       -0.9261021813       -1.2790224807
 O         -2.0674496885       -1.5280697602       -2.2646045390
 O         -2.9637089433       -0.7443581229        2.3091040057
 C         -1.7160244476       -2.5174400220        0.5355141113
 C         -0.2547739014       -2.1911236424        0.7071324103
 C          0.3832794258       -2.3335795957        1.9328530802
 C          1.7112306824       -1.9704406714        2.0820743009
 C          2.4259052432       -1.4538887370        1.0157916271
 C          1.7948249033       -1.3062560622       -0.2124607785
 C          0.4698420814       -1.6796815379       -0.3618998260
 H         -0.0167850973       -1.5554036316       -1.3188347048
 N          2.5095462653       -0.7451220103       -1.2995767664
 S          2.7477334757        0.9181770938       -1.1453060021
 O          1.6561423902        1.5408990921       -0.4286817010
 O          2.9961768503        1.4039489426       -2.4852849193
 C          4.2471229299        1.0240403599       -0.1927834083
 C          4.2212121821        1.5682518692        1.0759802749
 C          5.4004191190        1.6265732972        1.8028172199
 C          6.5764042857        1.1417814274        1.2508841007
 C          6.5853099064        0.5996437682       -0.0260163050
 C          5.4105332263        0.5390586054       -0.7582875798
 H          5.3709066885        0.1308436061       -1.7543629833
 H          7.5017706432        0.2240354549       -0.4516115312
 H          7.4916524095        1.1869606328        1.8196788204
 H          5.3953089961        2.0473940324        2.7954353479
 H          3.2812712054        1.9262105593        1.4647290957
 H          2.0468940966       -0.9152563204       -2.1833816876
 H          3.4585351848       -1.1652474846        1.1257236588
 H          2.1932201392       -2.0854691809        3.0407175075
 H         -0.1754014303       -2.7119210326        2.7763271610
 H         -2.1292285038       -2.7262034025        1.5346776359
 C         -1.9750153225       -3.7395178142       -0.3347645445
 C         -0.9058598223       -4.4584959195       -1.0977525256
 C         -1.5028693409       -5.0885314201        0.1221501849
 H         -2.1599248657       -5.9363918522        0.0027692759
 H         -0.8935748686       -5.1211749305        1.0128621285
 H         -1.1664137106       -4.8509898955       -2.0690295194
 H          0.1063694153       -4.0906867565       -1.0364973441
 H         -2.9510630332       -3.7011911349       -0.8071902533
