  62
        -98.93351261
 C         -2.1670420841       -1.0769633263       -0.4865512458
 C         -3.3749669053       -0.7645559040        0.1874490674
 C         -4.0637778929        0.4721876571       -0.2131840763
 C         -3.5209234024        1.2422181713       -1.1711962476
 C         -4.0524963908        2.5223493834       -1.7674011847
 C         -4.6867811692        3.5422117104       -0.8131713529
 C         -4.0405265800        3.6154461218        0.5779648338
 H         -3.1027367171        3.0562922941        0.5843182097
 H         -3.7993719690        4.6560810231        0.8030176995
 C         -4.9546664493        3.0935130769        1.6890726195
 H         -4.6111732534        3.4974616551        2.6443492579
 H         -5.9648445761        3.4715181482        1.5177071727
 C         -5.0071397005        1.5732962199        1.8333107111
 H         -4.0521552106        1.2044102310        2.2176001622
 H         -5.7677852278        1.3319520376        2.5795818777
 C         -5.3199177555        0.7975846323        0.5433997106
 H         -5.7555230070       -0.1640820046        0.8274840538
 H         -6.0348618092        1.3331273916       -0.0761524685
 H         -4.6132338269        4.5157455982       -1.3009706697
 H         -5.7483432336        3.3265395235       -0.7017768591
 H         -3.1950891963        2.9757034258       -2.2712018295
 H         -4.7775390890        2.2582782048       -2.5431041913
 O         -2.3542163183        0.9087850911       -1.7922415116
 C         -1.6469840309       -0.2433714083       -1.4760521298
 O         -0.6139643749       -0.3928645819       -2.1567703324
 O         -3.8711632275       -1.5027549674        1.0801123391
 C         -1.4529330679       -2.3488425353       -0.0580457866
 C         -0.3506196683       -2.0019091422        0.9146819698
 C         -0.5660760925       -2.1575971768        2.2806413194
 C          0.4178251152       -1.8238044415        3.1928732357
 C          1.6332366327       -1.3272627426        2.7594590275
 C          1.8589124608       -1.1653405991        1.3963410904
 C          0.8704299143       -1.5021078277        0.4820790196
 H          1.0504021541       -1.3388285279       -0.5687456346
 N          3.1016034048       -0.6942688716        0.9388903914
 S          3.1441626037        0.3264644058       -0.4080919801
 O          2.1538035069        1.3705226619       -0.2656973972
 O          3.0995620348       -0.4759259323       -1.6025314428
 C          4.7843214895        1.0059807436       -0.2202748307
 C          4.9491278180        2.2334633128        0.3928065217
 C          6.2310539818        2.7344037404        0.5586158135
 C          7.3213126692        2.0018672053        0.1140775276
 C          7.1406324622        0.7716152112       -0.5005588350
 C          5.8615794155        0.2661986401       -0.6705351110
 H          5.6698909261       -0.6791905728       -1.1505534886
 H          7.9900073998        0.2059618130       -0.8480336674
 H          8.3176543217        2.3936756060        0.2444847661
 H          6.3737060518        3.6922759781        1.0323460305
 H          4.0713870824        2.7714510543        0.7136343854
 H          3.6724934063       -0.3238565587        1.6873680460
 H          2.4039708217       -1.0655544023        3.4686190529
 H          0.2358020105       -1.9473596462        4.2497145314
 H         -1.5233570032       -2.5266085130        2.6196485660
 H         -2.2095936676       -2.9248308356        0.4931553844
 C         -0.9598193597       -3.1949341410       -1.2126070408
 C         -0.6694047537       -4.6450903202       -0.9707662227
 C         -1.8618857614       -4.2450810805       -1.7853978283
 H         -1.8415716360       -4.4130309077       -2.8517163576
 H         -2.8417395940       -4.3563912572       -1.3442413510
 H          0.1737660860       -5.0904838840       -1.4759637591
 H         -0.8414162946       -5.0288288010        0.0235455878
 H         -0.3212361954       -2.6610908679       -1.9044351361
