  62
        -98.94469748
 C         -2.5682769003       -0.1872309837       -0.3459770394
 C         -2.1369745115       -0.7235007600        0.8919691010
 C         -1.6578876457       -2.1126697234        0.8551493525
 C         -1.6428886944       -2.7746361235       -0.3156347844
 C         -1.1649347440       -4.1856688311       -0.5021037185
 C          0.3208033426       -4.2367394521       -0.8802548813
 C          1.2246042256       -3.4118030069        0.0363998536
 H          1.0176522925       -2.3484767299       -0.1095738399
 H          2.2543636410       -3.5774132044       -0.2904343563
 C          1.1008845405       -3.7491568515        1.5288040703
 H          2.1043944043       -3.7965277609        1.9566434406
 H          0.6464805590       -4.7337017838        1.6514998831
 C          0.3196739198       -2.7167276497        2.3446148840
 H          0.6895145482       -1.7162490599        2.1074509730
 H          0.5137379144       -2.9014217195        3.4048897742
 C         -1.2021981842       -2.7234382548        2.1499419601
 H         -1.6409810756       -2.1071293286        2.9401414542
 H         -1.5854517724       -3.7415279697        2.2531872453
 H          0.4339045646       -3.8565481140       -1.8985333507
 H          0.6422764608       -5.2803534078       -0.8673357955
 H         -1.3351779136       -4.7424802673        0.4174477286
 H         -1.7491831282       -4.6392849583       -1.3051498351
 O         -2.0511643262       -2.2204078348       -1.4877745829
 C         -2.4970775429       -0.9107332861       -1.5344124674
 O         -2.8098941029       -0.5127838091       -2.6778013567
 H         -0.4741761220        1.0231926116       -1.0865370450
 C         -0.6405912281        1.8920201048       -0.4619711572
 C         -1.9250343176        2.1794732426       -0.0151562196
 C         -2.1085740242        3.3127257195        0.7656392913
 C         -1.0318793832        4.1158860725        1.1056555706
 C          0.2495127222        3.7997218329        0.6926213676
 C          0.4401137410        2.6736510850       -0.0977332730
 N          1.7592344582        2.2887629968       -0.4802278633
 S          2.0491630145        0.6347368135       -0.4995865080
 O          1.7333540069        0.0514161762       -1.7906660300
 O          1.4144257993        0.0609864511        0.6574319962
 C          3.8176839053        0.6294851162       -0.2714711317
 C          4.3095272028        0.9765737728        0.9722918617
 C          5.6807483716        1.0075573086        1.1668908886
 C          6.5341419230        0.6933499289        0.1192451499
 C          6.0262951185        0.3447841975       -1.1226446447
 C          4.6547006926        0.3130725158       -1.3230822764
 H          4.2139836000        0.0420130298       -2.2691784491
 H          6.6911639736        0.0980090961       -1.9347442631
 H          7.6014522518        0.7183659761        0.2726606789
 H          6.0787910200        1.2760281184        2.1321865040
 H          3.6062931263        1.2050741039        1.7563136077
 H          2.0844377656        2.7278660262       -1.3299327862
 H          1.0958521019        4.4049649919        0.9736725325
 H         -1.1938826181        4.9913264911        1.7158544742
 H         -3.0968228601        3.5639058453        1.1155440827
 C         -3.0439170163        1.2525309453       -0.4263677451
 H         -3.2627869901        1.4385610843       -1.4892708259
 C         -4.3141949901        1.4461883712        0.3751989293
 C         -5.3290819017        2.4632715744       -0.0506551699
 C         -5.6159036568        1.0023923679       -0.2192988215
 H         -6.3461500845        0.5389416057        0.4266425800
 H         -5.5866676640        0.5843467483       -1.2154114205
 H         -5.1169450062        3.0412006115       -0.9375417221
 H         -5.8687417878        3.0035919623        0.7123334243
 H         -4.1643435362        1.2788282081        1.4353387443
 O         -2.1708366189       -0.0821071788        1.9743112094
