  62
        -98.93697599
 C         -1.5708109209       -1.4295543798       -0.6903265781
 C         -1.4445218505       -0.0202565398       -0.5920532693
 C         -2.7078155202        0.7321298707       -0.4928375998
 C         -3.8804078204        0.0770442810       -0.5273922090
 C         -5.2300405002        0.7179466715       -0.3864533093
 C         -5.6756973900        0.7564907229        1.0820783307
 C         -4.6132297097        1.3024845334        2.0362896800
 H         -5.0497704895        1.3097670045        3.0375428201
 H         -3.7672559199        0.6115741932        2.0605269705
 C         -4.1086509793        2.7097749030        1.6876517487
 H         -4.0691120890        3.3030611538        2.6037183482
 H         -4.8146650793        3.1992536126        1.0157660484
 C         -2.7096112794        2.7484296021        1.0692211385
 H         -2.0167551195        2.1791126324        1.6938316188
 H         -2.3717189491        3.7879363520        1.0653236475
 C         -2.6018776098        2.2263604208       -0.3687402511
 H         -3.3478879598        2.7184494804       -0.9957571214
 H         -1.6069932298        2.4852207902       -0.7424990215
 H         -6.5791633998        1.3650516132        1.1531071603
 H         -5.9261546202       -0.2600261068        1.3947327416
 H         -5.1912141300        1.7271861611       -0.7917326302
 H         -5.9507214205        0.1330261412       -0.9605029887
 O         -3.9645406908       -1.2727467091       -0.6488084878
 C         -2.8238470611       -2.0514852995       -0.7167034173
 O         -3.0532649614       -3.2762364895       -0.8027891462
 H          1.6360724595       -0.5198126803       -0.2196433294
 C          1.4801053894       -1.2372229696        0.5637802213
 C          0.5149482991       -2.2241475294        0.4336438123
 C          0.3192452090       -3.0965968084        1.5037082831
 C          1.0650544792       -2.9854929876        2.6616041629
 C          2.0335951495       -2.0045859478        2.7796705719
 C          2.2346697996       -1.1240255287        1.7242727611
 N          3.1749482599       -0.0919298389        1.8237928300
 S          3.9875782598        0.4665388597        0.4763152294
 O          4.3040956694       -0.6123500112       -0.4316175697
 O          5.1264614201        1.1776442898        1.0223420486
 C          2.8922850800        1.6403011493       -0.2887048215
 C          2.1566642404        2.4874108402        0.5139559279
 C          1.3229176906        3.4166593399       -0.0840909128
 C          1.2445585704        3.4877892887       -1.4657538728
 C          1.9955631500        2.6346814778       -2.2575657522
 C          2.8294558698        1.6999928281       -1.6657527215
 H          3.4151958996        1.0033676874       -2.2453168710
 H          1.9256654398        2.6836999569       -3.3328225322
 H          0.5865046505        4.2063439885       -1.9295843734
 H          0.7275117209        4.0746329006        0.5287603567
 H          2.2326004606        2.3977422311        1.5849953280
 H          3.7498133500       -0.0971212684        2.6525804199
 H          2.6212917597       -1.9151609771        3.6807666017
 H          0.8957268192       -3.6717686368        3.4776845635
 H         -0.4380478412       -3.8641533583        1.4215176439
 C         -0.3769105812       -2.3787506802       -0.7728870374
 H         -0.8304265414       -3.3778067100       -0.6870245565
 C          0.2697177786       -2.3614197516       -2.1558961375
 C          0.9202112688       -1.1736432224       -2.7978677687
 C          1.7472983286       -2.3621261523       -2.4128784678
 H          2.1201816283       -3.0000299331       -3.2013385473
 H          2.4256898087       -2.2624864917       -1.5792142480
 H          1.0038461892       -0.2655349919       -2.2240975095
 H          0.7227216987       -1.0028376432       -3.8471661488
 H         -0.3191847417       -2.9719156421       -2.8369672569
 O         -0.3567799203        0.6061173999       -0.5859974800
