  62
        -98.93675960
 C         -2.4343850634       -1.2898380715        0.2440319235
 C         -2.6809337311       -0.4733970404       -0.8855496400
 C         -3.6253313086        0.6378664707       -0.6832474346
 C         -4.1782808116        0.8178272733        0.5300760727
 C         -5.0975977204        1.9432343026        0.9119959869
 C         -4.2873149286        3.2364474257        1.1337147178
 C         -4.5878291820        4.3480865702        0.1281010528
 H         -5.5480503534        4.8031736324        0.3796346531
 H         -3.8187446748        5.1140890070        0.2482626463
 C         -4.6418220134        3.9207726567       -1.3418457307
 H         -5.6068334060        3.4584065842       -1.5543028182
 H         -4.5958206256        4.8335047242       -1.9395928694
 C         -3.5297828707        2.9712021914       -1.8062562119
 H         -2.6489793614        3.0689046074       -1.1711038539
 H         -3.2288889427        3.2677137363       -2.8130132574
 C         -3.9419163098        1.4891559423       -1.8818447769
 H         -5.0095807898        1.4184476505       -2.1072707353
 H         -3.3991012443        1.0183658894       -2.7068667361
 H         -4.4816004000        3.6203903658        2.1364269628
 H         -3.2248159071        2.9861283087        1.0948909537
 H         -5.8435746583        2.0876851689        0.1337045061
 H         -5.6043671967        1.6504223565        1.8317829422
 O         -3.8969072800        0.0236792733        1.5972765447
 C         -3.0218615286       -1.0443809672        1.4835156865
 O         -2.8471428318       -1.6832885645        2.5421696622
 H         -0.1541183328       -0.3791139516        1.0883820747
 C          0.4312368612       -0.8980886149        0.3376168672
 C         -0.1124505759       -2.0134804126       -0.2881069199
 C          0.6568320125       -2.6796216487       -1.2328754993
 C          1.9253565263       -2.2256127831       -1.5512010453
 C          2.4546268828       -1.1058784802       -0.9372469960
 C          1.6989449096       -0.4383194366        0.0179110449
 N          2.2306996460        0.7047949357        0.6462713529
 S          3.7014627510        0.5237074456        1.4424222825
 O          3.8747611649       -0.8264511435        1.9271511103
 O          3.7244751232        1.5724961944        2.4389621636
 C          4.9161608686        0.8843355433        0.1921502907
 C          4.8550375227        2.1103871761       -0.4409171765
 C          5.8003434159        2.4108532251       -1.4085223066
 C          6.7864180736        1.4871288450       -1.7223348274
 C          6.8355344738        0.2617358793       -1.0755299669
 C          5.8921643124       -0.0458310926       -0.1073535153
 H          5.8865009917       -0.9873932298        0.4180506630
 H          7.6027692576       -0.4548440781       -1.3210121457
 H          7.5210257745        1.7242772009       -2.4756119892
 H          5.7651519140        3.3624344397       -1.9140873162
 H          4.0750781439        2.8002696150       -0.1647646883
 H          1.5697805611        1.1713078629        1.2511470847
 H          3.4388909596       -0.7452836766       -1.1877169078
 H          2.5088941282       -2.7506104001       -2.2918593279
 H          0.2621131658       -3.5544540300       -1.7226366394
 C         -1.4894132978       -2.4715781184        0.1296939465
 H         -1.4074989246       -2.8935259662        1.1429785394
 C         -2.0818383117       -3.5219731074       -0.7873792325
 C         -1.7849069329       -4.9740023893       -0.5675449970
 C         -3.1442327753       -4.4304219461       -0.2483348515
 H         -3.9718142636       -4.6946233382       -0.8892932568
 H         -3.4184022162       -4.3091851579        0.7899863882
 H         -1.1378906811       -5.2334689906        0.2569200005
 H         -1.6822758157       -5.6161068698       -1.4293075026
 H         -2.1953598643       -3.1676320208       -1.8052900526
 O         -2.1429232622       -0.6627518149       -2.0068590122
