  62
        -98.94777069
 C         -0.7801160198       -1.2710427479        0.0210147332
 C         -1.4855955456       -0.6105410025        1.0540379007
 C         -2.4047946721        0.4479752509        0.6214106838
 C         -2.4794681467        0.7751027561       -0.6814733013
 C         -3.3843096159        1.8159436943       -1.2825617717
 C         -4.8054741200        1.3083191411       -1.5662757056
 C         -5.6840375763        1.1044528626       -0.3310850388
 H         -5.6714207694        2.0093095328        0.2772290515
 H         -6.7073085396        0.9655501890       -0.6856584696
 C         -5.2955315380       -0.1039600215        0.5324610114
 H         -6.1938018570       -0.6664635310        0.7971152900
 H         -4.6569904058       -0.7759156593       -0.0456887717
 C         -4.5839087592        0.2508892302        1.8383215772
 H         -4.3220360649       -0.6790966250        2.3495543391
 H         -5.2625235170        0.8104323304        2.4861279955
 C         -3.2986362397        1.0683796461        1.6526337723
 H         -2.7572752808        1.0771332343        2.6021240832
 H         -3.5469890586        2.0934467537        1.3788487657
 H         -4.7377848727        0.3710638450       -2.1232003103
 H         -5.2913150959        2.0436052924       -2.2117057196
 H         -3.4350554034        2.6863271694       -0.6289754984
 H         -2.9303909893        2.1105040291       -2.2304843634
 O         -1.7120212339        0.1789852558       -1.6315704829
 C         -0.8754169179       -0.8808311630       -1.3147681733
 O         -0.2803120146       -1.3749111463       -2.2907314876
 O         -1.3633491232       -0.8994519634        2.2757142522
 C          0.1045915297       -2.4523199612        0.3696279523
 C          1.5108868474       -2.2539924641       -0.1374579708
 C          2.2567541028       -3.2695721767       -0.7220638430
 C          3.5503951097       -3.0288481962       -1.1509316960
 C          4.1278739398       -1.7826346754       -0.9985099270
 C          3.3913647624       -0.7597045470       -0.4098001353
 C          2.0962079444       -1.0036063927        0.0157974605
 H          1.5284176777       -0.2103107966        0.4796051391
 N          3.9368965284        0.5215348034       -0.2750382235
 S          3.3899453087        1.6128565447        0.8549432824
 O          4.4118547898        2.6385924279        0.8742657447
 O          3.1087329228        0.9857096046        2.1253950839
 C          1.9104803488        2.3017881631        0.1467772618
 C          1.9389324151        2.7009109104       -1.1744605412
 C          0.8156515962        3.3041806474       -1.7154698649
 C         -0.3067074339        3.5073202200       -0.9277654313
 C         -0.3216288709        3.0959122900        0.3954333538
 C          0.7960825525        2.4846335541        0.9399463152
 H          0.8185102051        2.1386527732        1.9620013810
 H         -1.1946911176        3.2467295680        1.0093621800
 H         -1.1747710852        3.9901328810       -1.3472978830
 H          0.8192031828        3.6167706745       -2.7473112536
 H          2.8319526528        2.5355850779       -1.7539178795
 H          4.9170826009        0.6159777870       -0.4917155441
 H          5.1360359015       -1.5957000125       -1.3350105230
 H          4.1180477382       -3.8248231619       -1.6085341716
 H          1.8251571490       -4.2490531199       -0.8464289523
 H          0.1425880646       -2.4773300656        1.4698984247
 C         -0.5376774522       -3.7340844494       -0.1234708581
 C         -0.3466319909       -5.0192837762        0.6235530896
 C         -1.6717107041       -4.3209542288        0.6605393678
 H         -2.5017894684       -4.7551805880        0.1236575387
 H         -1.9581501860       -3.8125607467        1.5697875925
 H         -0.2691108586       -5.9371545379        0.0603810279
 H          0.2629489803       -4.9941960640        1.5142643327
 H         -0.6041776341       -3.7733026657       -1.2053695895
