  62
        -98.94967556
 C         -1.4984156630       -1.0656473123        0.0401416727
 C         -2.5173477798       -0.6408910904        0.9230332882
 C         -3.0518156644        0.7057214811        0.6865407570
 C         -2.5316269233        1.4554923120       -0.3028037440
 C         -3.0074406962        2.8290962960       -0.6762040131
 C         -4.1017053157        2.7690300278       -1.7513252861
 C         -5.2253297003        1.7825859656       -1.4330068181
 H         -5.9536503036        1.8463042679       -2.2441981538
 H         -4.8206729382        0.7680415743       -1.4413472417
 C         -5.9296345274        2.0346564002       -0.0926684998
 H         -7.0083581214        1.9563607346       -0.2431894484
 H         -5.7226642789        3.0492154983        0.2496819525
 C         -5.5616151910        1.0434037470        1.0128268446
 H         -5.6780982327        0.0217850011        0.6425785207
 H         -6.2673806373        1.1755858593        1.8372118569
 C         -4.1492215083        1.1855901943        1.5946810253
 H         -3.9748746624        2.2213806253        1.8945889329
 H         -4.0926442010        0.5574433214        2.4889239960
 H         -4.5176874865        3.7704883606       -1.8755938361
 H         -3.6415649268        2.4717605235       -2.6963887781
 H         -3.3828586577        3.3304555179        0.2139792079
 H         -2.1549453526        3.3911976661       -1.0619458707
 O         -1.5365018141        1.0233141133       -1.1163096994
 C         -0.9899233847       -0.2387469902       -0.9606690032
 O         -0.0779276836       -0.5089681063       -1.7666434581
 H          0.4292257048       -0.5607160415        1.6032776048
 C          1.1063625008       -1.2819842385        1.1688278258
 C          0.6069947182       -2.3347015089        0.4126036155
 C          1.5074031869       -3.2481578438       -0.1226123592
 C          2.8687750972       -3.0932182948        0.0747419066
 C          3.3624114530       -2.0156744312        0.7870842877
 C          2.4692723013       -1.1020760107        1.3335642633
 N          2.9152485573        0.0350255651        2.0433799390
 S          2.6126412996        1.5136992690        1.3084482442
 O          3.2452052157        2.4953497743        2.1645214691
 O          1.1987249024        1.6751102378        1.0899956435
 C          3.5066157272        1.4116409023       -0.2322758657
 C          2.9434621232        0.7514383094       -1.3057612045
 C          3.6955553547        0.6039067457       -2.4621472373
 C          4.9842537585        1.1101124136       -2.5247937474
 C          5.5337752516        1.7714542455       -1.4363542238
 C          4.7917489493        1.9191933046       -0.2763575568
 H          5.1740991555        2.4275556572        0.5942396258
 H          6.5352379249        2.1674836855       -1.4871202319
 H          5.5620691325        0.9888924677       -3.4274791205
 H          3.2601327672        0.0889274037       -3.3034563253
 H          1.9360518404        0.3688021647       -1.2418445524
 H          3.8942452950       -0.0066566321        2.2948837233
 H          4.4251269601       -1.8781496689        0.9189683423
 H          3.5547171445       -3.8110131253       -0.3481702135
 H          1.1418251820       -4.0811017597       -0.7006764160
 C         -0.8860964170       -2.4416149752        0.2220925359
 H         -1.3262188045       -2.8388956990        1.1496113564
 C         -1.2774016795       -3.3464776612       -0.9293726436
 C         -1.4729610267       -4.8165228144       -0.7112435843
 C         -2.6571985982       -3.9305323090       -0.9505088910
 H         -3.1746063333       -3.9993636480       -1.8956531368
 H         -3.3028932232       -3.6995240894       -0.1156689552
 H         -1.3228136221       -5.1989239696        0.2870370888
 H         -1.1795610818       -5.4976423323       -1.4958109109
 H         -0.8586700646       -3.0175254727       -1.8740920975
 O         -2.9554323126       -1.3543914651        1.8677398648
