  62
        -98.93800702
 C         -2.4229861200       -0.4251265115        0.4704941763
 C         -3.2201248041       -0.3682680239       -0.6999302605
 C         -4.2991012343        0.6318114886       -0.6841393241
 C         -4.4482642283        1.4505296288        0.3715638159
 C         -5.4780544368        2.5382575104        0.5141948803
 C         -6.8420831783        2.0454198335        1.0163984037
 C         -7.6605920709        1.2482987825       -0.0000519949
 H         -8.6706186247        1.1556467831        0.4041882434
 H         -7.7329326941        1.8133655362       -0.9298227478
 C         -7.1148300833       -0.1568290242       -0.2903561384
 H         -6.4171736923       -0.4465819107        0.4989548748
 H         -7.9357360209       -0.8773228685       -0.2713900228
 C         -6.4179331084       -0.2992945528       -1.6435649846
 H         -7.1414499314       -0.1407555206       -2.4463045044
 H         -6.0397983502       -1.3212922145       -1.7285324996
 C         -5.2395118447        0.6608892009       -1.8513541476
 H         -4.6835669321        0.3351716064       -2.7338214897
 H         -5.6048090314        1.6733722532       -2.0211659699
 H         -6.6865751900        1.4413729277        1.9133753022
 H         -7.4202313289        2.9261083433        1.3055239779
 H         -5.0795558960        3.2486507940        1.2417135136
 H         -5.6039145261        3.0514288282       -0.4395620413
 O         -3.6350990975        1.3915536974        1.4603947407
 C         -2.6271274893        0.4474733853        1.5429971305
 O         -1.9840658867        0.4801369017        2.6126070992
 O         -3.0576983121       -1.0959874378       -1.7113726395
 C         -1.2856641961       -1.4168690062        0.6547923215
 C         -0.0010745989       -0.8533279056        0.1041877152
 C          0.0893637638       -0.4131930062       -1.2129581203
 C          1.2784849696        0.0983952501       -1.6990295263
 C          2.3950340424        0.1897573236       -0.8858335053
 C          2.3141513838       -0.2408034770        0.4311622865
 C          1.1204089430       -0.7619196845        0.9148522155
 H          1.0581588288       -1.0864132622        1.9452712221
 N          3.4378920566       -0.1311001508        1.2664581875
 S          4.9082332357       -0.7250118899        0.7157873019
 O          4.7190935198       -1.8128833263       -0.2152931686
 O          5.6643468391       -1.0251425309        1.9117337418
 C          5.6536952758        0.6656814276       -0.1081576975
 C          6.0707665276        0.5463442881       -1.4193146690
 C          6.6601539062        1.6385709596       -2.0369352738
 C          6.8219234328        2.8235854610       -1.3357348448
 C          6.3996298034        2.9262530515       -0.0184909152
 C          5.8107831847        1.8379394542        0.6050555209
 H          5.4729220855        1.8759789756        1.6272902728
 H          6.5269835195        3.8496132135        0.5233089838
 H          7.2799317894        3.6724351490       -1.8184857804
 H          6.9894619082        1.5608193220       -3.0606446594
 H          5.9201711139       -0.3933322611       -1.9266787146
 H          3.2682238731       -0.4128168882        2.2210599283
 H          3.3223365986        0.5906717916       -1.2612203577
 H          1.3368655017        0.4333734970       -2.7235742514
 H         -0.7809170213       -0.4818107751       -1.8478695355
 H         -1.1633274996       -1.5093955208        1.7458717894
 C         -1.6117113203       -2.8061667787        0.1226300309
 C         -0.9226530187       -3.4410597469       -1.0438176636
 C         -0.6443641562       -3.9320284857        0.3429545314
 H         -1.0268253090       -4.8957471985        0.6435357416
 H          0.3152865850       -3.6845756766        0.7733921000
 H         -1.5207592724       -4.0515299318       -1.7029109513
 H         -0.1480530853       -2.8868142705       -1.5495278000
 H         -2.6636270181       -3.0452762706        0.2410359550
