  62
        -98.94726064
 C          0.9704214060        1.5296437591       -0.8808189710
 C          2.2855776791        1.4825114760       -0.3496535188
 C          3.0548449945        0.2636112718       -0.6128884471
 C          2.5011821131       -0.7270891986       -1.3339519828
 C          3.1345431582       -2.0532081304       -1.6548828041
 C          2.9787299270       -3.0839014777       -0.5277737552
 C          3.8794634865       -2.8550169908        0.6867137931
 H          4.9084922631       -2.7064593539        0.3562353988
 H          3.8547561478       -3.7714560535        1.2799885211
 C          3.4454378449       -1.6838050747        1.5795340948
 H          3.4882185814       -1.9929884346        2.6271386625
 H          2.4016813637       -1.4329887888        1.3712368609
 C          4.3067015506       -0.4270461544        1.4467854830
 H          5.3165276085       -0.6368917686        1.8082112267
 H          3.8740950771        0.3488952674        2.0836868566
 C          4.4061221131        0.1318388666        0.0218408884
 H          5.0515948106       -0.5015838181       -0.5865163626
 H          4.8459629251        1.1309532990        0.0777943995
 H          3.2066112256       -4.0676812074       -0.9455771956
 H          1.9361720386       -3.0908160977       -0.1976562453
 H          4.1920217080       -1.9161024897       -1.8826250890
 H          2.6322034200       -2.4339998826       -2.5468324910
 O          1.2634417717       -0.6241723783       -1.8772579309
 C          0.4505479041        0.4750890943       -1.6319086369
 O         -0.6778827667        0.3739168629       -2.1532947518
 O          2.7919560456        2.4232232293        0.3209631340
 C          0.1235912319        2.7211333069       -0.4638355753
 C         -0.5788156765        2.3736229198        0.8294285154
 C         -0.5279394860        3.2094589550        1.9381273711
 C         -1.1087223042        2.8242786764        3.1342104027
 C         -1.7122412516        1.5855170551        3.2593918143
 C         -1.7695549880        0.7449979741        2.1537164643
 C         -1.2454971992        1.1626393671        0.9414578825
 H         -1.3158396773        0.5082434714        0.0882924719
 N         -2.3348829863       -0.5370726564        2.2248609756
 S         -1.5946356969       -1.7806258602        1.3714240602
 O         -1.9780651339       -2.9814155215        2.0896186504
 O         -0.1719818647       -1.5684867353        1.2358430304
 C         -2.3985948540       -1.8098725442       -0.2144641972
 C         -3.6987798158       -1.3610640711       -0.3283796192
 C         -4.3280595687       -1.4454753718       -1.5594886625
 C         -3.6545162137       -1.9813530737       -2.6461349150
 C         -2.3517009776       -2.4325311422       -2.5130326618
 C         -1.7154255291       -2.3470045074       -1.2856972306
 H         -0.6943316674       -2.6670712979       -1.1478494851
 H         -1.8222151518       -2.8384812637       -3.3600399805
 H         -4.1447294052       -2.0418986119       -3.6051800463
 H         -5.3398037431       -1.0887733106       -1.6687149558
 H         -4.1898393876       -0.9427923364        0.5346143674
 H         -2.6159156801       -0.8352092211        3.1478391009
 H         -2.1247521692        1.2659690764        4.2042135548
 H         -1.0634572378        3.4824063950        3.9886743580
 H         -0.0082644388        4.1533823638        1.8674731358
 H          0.8345768580        3.5312329786       -0.2501107738
 C         -0.8629950159        3.2071459870       -1.5048619092
 C         -1.3467789532        4.6241020370       -1.4423201004
 C         -0.4154577281        4.1973717276       -2.5361231369
 H         -0.8008537145        4.1018394263       -3.5397499388
 H          0.6102808571        4.5338297733       -2.4932642062
 H         -2.3764445924        4.8261186745       -1.6935316106
 H         -0.9524281317        5.2556898781       -0.6608935025
 H         -1.5653928877        2.4462273341       -1.8179068478
