  62
        -98.93260811
 C         -2.4360377728        0.9041682083       -0.2304867831
 C         -2.8324451697       -0.4131005999       -0.5725871991
 C         -3.9501345395       -0.9929904078        0.1879805847
 C         -4.5177401838       -0.2719133540        1.1697154029
 C         -5.6376139112       -0.6671841251        2.0994879991
 C         -6.8344912249       -1.4105207452        1.4904665911
 C         -7.1775136789       -1.0170913362        0.0462123981
 H         -8.2416259182       -0.7813999445       -0.0140759415
 H         -6.6280668906       -0.1179261894       -0.2376351876
 C         -6.8865082680       -2.1319778143       -0.9613641700
 H         -7.2239334318       -3.0814422308       -0.5400055543
 H         -7.4718117711       -1.9497348538       -1.8658915873
 C         -5.4252592240       -2.2666234529       -1.3886268129
 H         -5.1419516192       -1.4165420769       -2.0152504140
 H         -5.3366703563       -3.1629256599       -2.0074246376
 C         -4.4049907314       -2.3580035809       -0.2420403530
 H         -4.8002323312       -2.9319659209        0.5927468176
 H         -3.5148521431       -2.8665707013       -0.6228483630
 H         -7.6914332700       -1.2095685145        2.1356019854
 H         -6.6560564678       -2.4841234568        1.5322053176
 H         -5.9776817178        0.2694853636        2.5476189740
 H         -5.2119130594       -1.2731514026        2.9046177582
 O         -4.0917047963        0.9821658372        1.4832195141
 C         -3.0500914956        1.6055011889        0.8068521066
 O         -2.7962806753        2.7475118652        1.2287102482
 O         -2.2710232289       -1.0792072154       -1.4848030397
 C         -1.2967452450        1.5005881700       -1.0376836075
 C          0.0245484277        1.1937944783       -0.3805316566
 C          0.2756121469        1.5538422447        0.9403819809
 C          1.4910584498        1.2533023369        1.5268575942
 C          2.4747942243        0.5852451992        0.8174578723
 C          2.2248680356        0.1982835541       -0.4917037089
 C          1.0064071391        0.5119205852       -1.0828223187
 H          0.8108347661        0.1999095903       -2.0998581427
 N          3.2129344158       -0.4782237305       -1.2216251805
 S          4.1169942150       -1.6828791062       -0.4838838926
 O          4.5850390924       -2.5132780387       -1.5717324262
 O          3.3730413061       -2.3480377626        0.5600479313
 C          5.5017788567       -0.8033869566        0.2100241752
 C          6.2280124718        0.0280399733       -0.6201093164
 C          7.3145186767        0.7115878083       -0.0984947721
 C          7.6571326194        0.5508042185        1.2358639778
 C          6.9207035398       -0.2906931334        2.0553106002
 C          5.8317466234       -0.9765612586        1.5398187747
 H          5.2276721976       -1.6373489767        2.1414176537
 H          7.1888166263       -0.4151635865        3.0921982403
 H          8.5032150262        1.0841972737        1.6395283795
 H          7.8896635217        1.3669541537       -0.7325591559
 H          5.9320518669        0.1233446696       -1.6513826410
 H          2.9250544928       -0.7535286066       -2.1493277145
 H          3.4200058579        0.3453770729        1.2758037300
 H          1.6762666706        1.5424933522        2.5503490351
 H         -0.4933897839        2.0671626272        1.4980453028
 H         -1.3209368869        0.9531074097       -1.9936582417
 C         -1.4861898293        2.9762936380       -1.3594031731
 C         -0.6168728598        4.0682283332       -0.8198193375
 C         -0.5066432848        3.6711083089       -2.2591714258
 H         -0.8824952062        4.3419791167       -3.0166423560
 H          0.3705494841        3.1151456882       -2.5551618912
 H         -1.0931809211        5.0042338177       -0.5713553613
 H          0.1893591147        3.8019360117       -0.1553626638
 H         -2.5331465224        3.2263814333       -1.4974626414
