  62
        -98.94672412
 C         -1.9909737828       -1.4565242930       -0.0933109606
 C         -1.7170688691       -0.2210942962       -0.7256125299
 C         -2.8691510182        0.6717900396       -0.9128602124
 C         -4.0899963471        0.2631529269       -0.5217011227
 C         -5.3376280119        1.0933437005       -0.6018595216
 C         -5.5578072880        1.8904242741        0.6918808093
 C         -4.3203190695        2.6511254560        1.1685765799
 H         -4.6031557956        3.1970222246        2.0712308100
 H         -3.5491797032        1.9327644557        1.4562206832
 C         -3.7403653742        3.6311222418        0.1391352248
 H         -3.5097762038        4.5718005601        0.6434441290
 H         -4.4861264906        3.8485225096       -0.6263271211
 C         -2.4497025702        3.1560552658       -0.5310591374
 H         -1.7361655322        2.8417810793        0.2353357791
 H         -2.0130884572        4.0048954548       -1.0644452255
 C         -2.6075659015        2.0118666377       -1.5407113701
 H         -3.3890867495        2.2609785044       -2.2612743149
 H         -1.6623506733        1.9085260608       -2.0821577436
 H         -6.3784586094        2.5915670319        0.5295382239
 H         -5.8564493656        1.1950212944        1.4798043228
 H         -5.2634607916        1.7705243781       -1.4505188655
 H         -6.1866505566        0.4251518539       -0.7553789843
 O         -4.3198539359       -0.9491092657        0.0455404517
 C         -3.2785059452       -1.8288216732        0.2926872348
 O         -3.6203561538       -2.8897302694        0.8530534021
 H          1.8680975580       -2.1202328469       -0.2773141804
 C          1.5303780221       -1.6797959048        0.6452460330
 C          0.1979783374       -1.7438849679        1.0194894312
 C         -0.1861312818       -1.1557028479        2.2230561364
 C          0.7363002985       -0.5103728041        3.0225609279
 C          2.0627311395       -0.4289764578        2.6339947382
 C          2.4580227156       -1.0164468428        1.4393118829
 N          3.8040688233       -0.9721076914        1.0291701207
 S          4.2011036046       -0.3190445570       -0.4618597340
 O          3.5630222613       -1.0670683759       -1.5125977491
 O          5.6482801997       -0.3040229257       -0.4764586338
 C          3.5952972525        1.3578122647       -0.3984128346
 C          2.2526002710        1.6079041127       -0.5977164517
 C          1.7969943960        2.9126154865       -0.4811046143
 C          2.6786702385        3.9351379975       -0.1688233171
 C          4.0246056399        3.6648375307        0.0292657776
 C          4.4879751958        2.3643802330       -0.0814488248
 H          5.5256914384        2.1077565952        0.0591447952
 H          4.7106241936        4.4608882792        0.2704832925
 H          2.3144168529        4.9466572728       -0.0806290747
 H          0.7483177115        3.1111261865       -0.6363817214
 H          1.5742880030        0.8052759600       -0.8404501887
 H          4.4270852129       -0.5921706257        1.7285168310
 H          2.7855610284        0.0809041074        3.2529025864
 H          0.4212672961       -0.0604371741        3.9519678214
 H         -1.2248913434       -1.2134679562        2.5205163935
 C         -0.8566114701       -2.4273900733        0.1832267844
 H         -1.2913989564       -3.2431686346        0.7791955152
 C         -0.3269665375       -3.0039706981       -1.1126108094
 C          0.3222446903       -4.3540754619       -1.1221877882
 C         -1.0345453729       -4.1700066648       -1.7314673305
 H         -1.1278600680       -4.2055245251       -2.8065921674
 H         -1.8913515107       -4.5657611547       -1.2052507362
 H          0.3885607654       -4.8834992739       -0.1835732882
 H          1.1646236677       -4.5142237226       -1.7784692833
 H          0.0661082389       -2.2475805261       -1.7829075016
 O         -0.5699123184        0.1241520528       -1.1099839277
