  62
        -98.94291197
 C          1.9793013041        0.1574012496       -0.2820271802
 C          2.8184702292       -0.7648273322        0.3903285765
 C          4.1510061760       -0.2652526825        0.7655049567
 C          4.4850581617        1.0089882075        0.4966282839
 C          5.8201996503        1.6291649545        0.7875904516
 C          6.7736246852        1.4825212154       -0.4065325788
 C          6.8491578297        0.0617417212       -0.9657907225
 H          5.8817924407       -0.2020243243       -1.3993691383
 H          7.5746919846        0.0721682034       -1.7821149102
 C          7.2514527877       -1.0048161545        0.0622961501
 H          7.9972402778       -1.6622308910       -0.3896359140
 H          7.7195526745       -0.5294255271        0.9250221491
 C          6.1010992456       -1.8951456015        0.5358904814
 H          5.5713329243       -2.2997155700       -0.3301080402
 H          6.5290420499       -2.7400609565        1.0819518949
 C          5.0754299403       -1.2262281959        1.4595432286
 H          5.5906565100       -0.7348215154        2.2872270396
 H          4.4360932182       -2.0127071741        1.8706602802
 H          6.4335833688        2.1469218114       -1.2044493824
 H          7.7683905725        1.8070401650       -0.0956992875
 H          5.6682351428        2.6904314576        0.9919075461
 H          6.2501019533        1.1575692163        1.6691398258
 O          3.6435512478        1.8759419019       -0.1225394564
 C          2.3874660159        1.4706724560       -0.5367851104
 O          1.7325622140        2.3602700747       -1.1181000838
 O          2.4956294866       -1.9474689200        0.6769309419
 C          0.5826759140       -0.1893635118       -0.7748848664
 C         -0.4365706195       -0.0963763373        0.3355789187
 C         -0.3504465571       -0.8922924510        1.4738934975
 C         -1.2959995492       -0.7849196020        2.4765686992
 C         -2.3569124932        0.0959779190        2.3547605310
 C         -2.4562925299        0.8893815840        1.2191704482
 C         -1.4929704366        0.7958133507        0.2234784150
 H         -1.5788875037        1.4297677425       -0.6463412757
 N         -3.5320296039        1.7850012651        1.0514449091
 S         -4.5144308405        1.5696259957       -0.2879258823
 O         -3.7659871395        1.8172803856       -1.4926373108
 O         -5.6614835953        2.4176956641       -0.0537535263
 C         -4.9982979399       -0.1455566807       -0.1978713571
 C         -4.1421999317       -1.1126836052       -0.6864517605
 C         -4.4855494346       -2.4468306162       -0.5348098927
 C         -5.6712597041       -2.7894969896        0.0966678183
 C         -6.5221867045       -1.8061260029        0.5782778195
 C         -6.1813414195       -0.4707093436        0.4368943529
 H         -6.8128127757        0.3269213331        0.7937172768
 H         -7.4451922098       -2.0753842678        1.0660398632
 H         -5.9330287526       -3.8293648648        0.2125204443
 H         -3.8218233998       -3.2102595941       -0.9075378164
 H         -3.2286668155       -0.8131757689       -1.1734405607
 H         -4.1070511387        1.8854824539        1.8765943951
 H         -3.0992948566        0.1742253031        3.1348115059
 H         -1.2122357760       -1.4011823702        3.3587041240
 H          0.4720313486       -1.5842269771        1.5683178100
 H          0.3333337326        0.5829789542       -1.5157570264
 C          0.5051772943       -1.5424003839       -1.4561935716
 C         -0.5582395259       -1.7735126841       -2.4854869538
 C          0.8767746272       -1.6535251574       -2.9024657696
 H          1.3962485925       -2.5397410808       -3.2345687958
 H          1.1859396338       -0.7506777697       -3.4099553338
 H         -1.0266842978       -2.7443306556       -2.5361370357
 H         -1.2187517907       -0.9508311736       -2.7198657743
 H          0.7737160819       -2.3669919705       -0.8096421979
