  62
        -98.93944626
 C         -1.4208177153       -1.1703682245        0.4458733920
 C         -2.4534739234       -1.0472570665       -0.5140487138
 C         -3.5799714027       -0.1812150977       -0.1334508090
 C         -3.5622605525        0.4418425296        1.0586766400
 C         -4.6147081272        1.3953601444        1.5442009993
 C         -4.2763617125        2.8418712304        1.1571904821
 C         -3.9007552899        3.0168341598       -0.3143948122
 H         -3.7123655834        4.0802350291       -0.4778455765
 H         -2.9625902462        2.4917024621       -0.5094757889
 C         -4.9681524409        2.5293237198       -1.3040958906
 H         -5.0866565578        3.2793873881       -2.0890117311
 H         -5.9294542704        2.4371062502       -0.7971293899
 C         -4.6327274707        1.2078099921       -1.9979806412
 H         -5.3365118973        1.0691984983       -2.8231924980
 H         -3.6299411122        1.2639979110       -2.4296164952
 C         -4.7079803369       -0.0455215002       -1.1170887697
 H         -5.6722657016       -0.0783299531       -0.6056852544
 H         -4.6374273953       -0.9166378282       -1.7751435036
 H         -3.4335672779        3.1757962868        1.7666636145
 H         -5.1360891797        3.4722045854        1.3919598229
 H         -5.5771039606        1.1113971669        1.1228940133
 H         -4.6691482157        1.3232947376        2.6317310533
 O         -2.5454548859        0.3100162744        1.9478764218
 C         -1.4480982445       -0.4872087950        1.6630213730
 O         -0.5801965221       -0.5067452912        2.5564741668
 H          0.9397158616        0.3482176709        0.1477772898
 C          1.0959599183       -0.1484831649       -0.7990270308
 C          0.5606966494       -1.4173581134       -0.9918388842
 C          0.7397406785       -2.0335970936       -2.2223354869
 C          1.4208422951       -1.3834135873       -3.2379394773
 C          1.9661511919       -0.1288092431       -3.0352994980
 C          1.8107439057        0.4875442084       -1.8001399087
 N          2.3968440303        1.7474884975       -1.5093671052
 S          3.8503836922        1.6052931369       -0.6631516646
 O          4.3321201832        2.9569745574       -0.4875148676
 O          4.7497128936        0.7128445824       -1.3660972811
 C          3.3971671055        0.8912297599        0.8974119222
 C          3.5714544606       -0.4651365970        1.0881656321
 C          3.1787708752       -1.0254814099        2.2925321943
 C          2.6228276226       -0.2252152054        3.2784474900
 C          2.4632571350        1.1363245285        3.0732681007
 C          2.8503160157        1.7038271327        1.8702626402
 H          2.7390652213        2.7567580803        1.6674130876
 H          2.0252569268        1.7509451801        3.8429950442
 H          2.3016380641       -0.6652967423        4.2087663238
 H          3.2988253340       -2.0847579877        2.4562114438
 H          4.0033966079       -1.0511801172        0.2926714277
 H          2.5752713856        2.2982594259       -2.3397934875
 H          2.5151904667        0.3702966835       -3.8201617229
 H          1.5374264373       -1.8657977687       -4.1967317117
 H          0.3312531224       -3.0153475838       -2.3949934546
 C         -0.1997763752       -2.0285151942        0.1590600056
 H          0.4356246726       -1.9542174561        1.0530849271
 C         -0.5818033637       -3.4774938483       -0.0497761645
 C          0.4513100224       -4.5474017175        0.1322480682
 C         -0.6468940118       -4.3866425603        1.1389248292
 H         -1.4275048534       -5.1316413882        1.1752884266
 H         -0.4027415727       -3.9635528830        2.1023923676
 H          1.4462835987       -4.2362026244        0.4120145249
 H          0.4261514351       -5.4065700050       -0.5206737130
 H         -1.3296606915       -3.6124133184       -0.8216922198
 O         -2.4459071183       -1.6297407546       -1.6298147557
