  62
        -98.93809472
 C         -2.2943943228       -1.0534971419       -0.3009829043
 C         -3.6836622196       -1.1543705003       -0.0244289999
 C         -4.5255834542       -0.0542396256       -0.5048928032
 C         -3.9618055073        0.9806572458       -1.1529037497
 C         -4.6860383132        2.1700804190       -1.7227486923
 C         -4.9632913598        3.2810081328       -0.7007218540
 C         -6.0537167775        2.9652419782        0.3238714333
 H         -6.2946101091        3.9005095430        0.8331034343
 H         -6.9543394315        2.6358520956       -0.1952673301
 C         -5.6519292715        1.9210998215        1.3750735773
 H         -4.5645039188        1.8131931185        1.3846007740
 H         -5.9456505008        2.2715420971        2.3671824488
 C         -6.2853159713        0.5440871446        1.1755382665
 H         -7.3682142650        0.6180366935        1.2972372945
 H         -5.9039906420       -0.1239061164        1.9520746533
 C         -5.9898137988       -0.0963770220       -0.1869494423
 H         -6.2912992883       -1.1458516423       -0.1441609089
 H         -6.5629988044        0.4013558210       -0.9688797197
 H         -5.2664296001        4.1693032482       -1.2598176172
 H         -4.0318376253        3.5179043975       -0.1808432199
 H         -5.6248107479        1.8458704659       -2.1729077226
 H         -4.0451685436        2.5773466482       -2.5077427005
 O         -2.6259926644        1.0513828408       -1.3864421892
 C         -1.7544816384        0.0560502145       -0.9546540374
 O         -0.5631777799        0.2897838953       -1.2316083489
 O         -4.1971472319       -2.1238523746        0.5942028784
 C         -1.4048894418       -2.1698335343        0.2201917049
 C         -0.2739382492       -1.5820838502        1.0236754646
 C         -0.5225407171       -1.1258341052        2.3148109960
 C          0.4797947075       -0.5318074740        3.0582135442
 C          1.7482473758       -0.3745036173        2.5276207091
 C          2.0017709242       -0.8144086118        1.2358664600
 C          0.9973316766       -1.4264257377        0.4965441390
 H          1.1976492640       -1.7475149056       -0.5137160276
 N          3.2869852001       -0.6624908569        0.6818207232
 S          4.1119234964        0.7755753751        1.0051636427
 O          4.7344259831        0.6563693805        2.3014416829
 O          3.2425499519        1.9172305781        0.8303916686
 C          5.3603975968        0.7382510312       -0.2657054135
 C          5.0724459000        1.2921088941       -1.4989713744
 C          6.0325737417        1.2399574158       -2.4971281189
 C          7.2557949226        0.6355775348       -2.2473175919
 C          7.5295094273        0.0838275244       -1.0047794143
 C          6.5743382666        0.1333284318       -0.0017789374
 H          6.7435609999       -0.2738814709        0.9812568338
 H          8.4823474612       -0.3830596602       -0.8145491635
 H          8.0004864349        0.5972245656       -3.0265682540
 H          5.8226777019        1.6698966173       -3.4634037363
 H          4.1109030407        1.7586628642       -1.6467603375
 H          3.2848106170       -0.8530219618       -0.3113844045
 H          2.5359124616        0.1016260102        3.0892959355
 H          0.2733694961       -0.1814157238        4.0586754184
 H         -1.5177692968       -1.2312151892        2.7251552254
 H         -2.0555319268       -2.7313879895        0.9101303645
 C         -0.9368602157       -3.1635428249       -0.8321053030
 C         -1.8617934738       -3.5979453408       -1.9286422012
 C         -0.6442136891       -2.7878068688       -2.2525153259
 H          0.1793487979       -3.2813980148       -2.7481537109
 H         -0.7713125040       -1.7566333921       -2.5416375690
 H         -1.8790011309       -4.6404757010       -2.2080769792
 H         -2.8257214977       -3.1132032938       -1.9837332888
 H         -0.3076277610       -3.9345370372       -0.3972576668
