  62
        -98.94098375
 C         -1.1171034971       -1.3250182072        0.6069301153
 C         -1.6334980332       -0.8064347661       -0.6025739106
 C         -2.4933079136        0.3893454485       -0.4911917459
 C         -2.6621023880        0.9729821343        0.7093656441
 C         -3.4418716135        2.2021046752        1.1286990859
 C         -4.3825313422        2.8978546094        0.1489908134
 C         -5.6543978420        2.1112623133       -0.1717546847
 H         -6.3019360446        2.1300373697        0.7085337348
 H         -6.1812835766        2.6208782470       -0.9812085077
 C         -5.4471708507        0.6479825486       -0.5549498581
 H         -4.9670005526        0.1167289750        0.2691460365
 H         -6.4329849631        0.1968785572       -0.6972326248
 C         -4.6429452440        0.4145707055       -1.8315513694
 H         -5.1118909908        0.9445203955       -2.6630991020
 H         -4.6801679233       -0.6552389563       -2.0546114140
 C         -3.1634087463        0.8256452088       -1.7630895655
 H         -2.6359254118        0.3150937748       -2.5743512703
 H         -3.0495260495        1.8948185208       -1.9216003777
 H         -4.6870472304        3.8368285851        0.6189144234
 H         -3.8541386205        3.1608508099       -0.7626543798
 H         -4.0087685769        1.9096793034        2.0185904714
 H         -2.6923933533        2.9237572368        1.4703952128
 O         -2.0435817052        0.4981828214        1.8315709647
 C         -1.2869370139       -0.6558245538        1.8177609262
 O         -0.8147009898       -0.9749409774        2.9292079740
 H          1.5462280060       -0.9787852267        1.6141079135
 C          1.8820863305       -1.3937754100        0.6716474376
 C          1.0582298515       -2.2920064389        0.0020911826
 C          1.4913955615       -2.8141506325       -1.2082604440
 C          2.7175714431       -2.4389139867       -1.7333442514
 C          3.5356684430       -1.5470193849       -1.0641263611
 C          3.1097772992       -1.0216668122        0.1498127615
 N          3.9322352310       -0.0973268502        0.8355997262
 S          4.1078219433        1.3956192155        0.0980599768
 O          4.7738138131        1.2107936836       -1.1651129350
 O          4.7815556101        2.2334109008        1.0632416114
 C          2.4459409440        1.9870320344       -0.1672074816
 C          1.8986987635        2.8689332752        0.7426969264
 C          0.5966244237        3.3032578645        0.5551915684
 C         -0.1358909536        2.8381069824       -0.5255214709
 C          0.4220386209        1.9396513674       -1.4215532848
 C          1.7266901206        1.5092454649       -1.2448663172
 H          2.1924323188        0.8190250962       -1.9292281268
 H         -0.1556767924        1.5637914982       -2.2506364560
 H         -1.1484155482        3.1778006157       -0.6722851143
 H          0.1583046579        4.0003289925        1.2515735841
 H          2.5052053733        3.2080881653        1.5673434421
 H          3.6405768408        0.0470534877        1.7928850701
 H          4.4841698605       -1.2327743898       -1.4682634851
 H          3.0404155421       -2.8481835164       -2.6785922990
 H          0.8646045118       -3.5039728409       -1.7482281873
 C         -0.2821264454       -2.5960655954        0.6247008771
 H         -0.1107169078       -2.8255638033        1.6859591755
 C         -1.0132496996       -3.7572912769       -0.0119076011
 C         -0.5736662460       -5.1577940355        0.2882540972
 C         -1.8644269719       -4.6411254018        0.8473051906
 H         -2.7910975840       -5.0175397356        0.4407569227
 H         -1.9116495754       -4.4174383495        1.9034330218
 H         -0.6142166916       -5.8927241909       -0.5010907339
 H          0.2571251935       -5.2855835542        0.9658133164
 H         -1.3744798251       -3.5384426727       -1.0088220869
 O         -1.4018526417       -1.3107378077       -1.7308207444
