  62
        -98.93877767
 C          2.7752154897        0.1915705129        0.0564698171
 C          2.2940070674       -0.6087248187       -1.0107023370
 C          2.1778693118       -2.0506964116       -0.7270132749
 C          2.5221771618       -2.5244065563        0.4823471688
 C          2.4326542399       -3.9618178357        0.9054390537
 C          1.0871255360       -4.2764712558        1.5715561253
 C         -0.1305816759       -3.8068865783        0.7751592147
 H         -1.0184927430       -4.1457897700        1.3138847341
 H         -0.1653577742       -2.7150342023        0.7624875844
 C         -0.1874514490       -4.3221233825       -0.6693046744
 H          0.4602548230       -5.1929920827       -0.7825906434
 H         -1.2087487033       -4.6442802792       -0.8832756133
 C          0.1755833599       -3.2749014120       -1.7244912668
 H         -0.3793445827       -2.3535048708       -1.5254821195
 H         -0.1455536759       -3.6470582560       -2.7018558678
 C          1.6662447628       -2.9279151196       -1.8346038343
 H          2.2548788291       -3.8458394910       -1.9046704724
 H          1.8071794754       -2.3567324945       -2.7573575515
 H          1.0267996360       -5.3559132595        1.7255663027
 H          1.0631675009       -3.7905587544        2.5496297036
 H          2.5752674704       -4.5978300313        0.0337753702
 H          3.2345051562       -4.1556663942        1.6204630221
 O          2.9824829236       -1.7273939236        1.4813275897
 C          3.0923734895       -0.3604024737        1.3000485829
 O          3.5014254821        0.2558764253        2.3062200458
 O          1.9905883576       -0.1736305833       -2.1514158606
 C          2.9081917504        1.7052517824       -0.0108411224
 C          1.6695358338        2.3609625661        0.5489312621
 C          1.7537242903        3.4957404499        1.3465316168
 C          0.6064521153        4.0901342953        1.8431014785
 C         -0.6386521231        3.5524301532        1.5760168493
 C         -0.7322238806        2.4003276365        0.7997729292
 C          0.4168951373        1.8307599220        0.2741840053
 H          0.3331486814        0.9571351755       -0.3531709298
 N         -1.9796378199        1.7932323740        0.5918178765
 S         -2.1742406388        0.4560061464       -0.4039807909
 O         -1.3886118943       -0.6278210614        0.1254463203
 O         -1.9637862204        0.8125838349       -1.7899276092
 C         -3.9055130449        0.1384398930       -0.1234378533
 C         -4.2719616596       -0.5815065352        0.9976194586
 C         -5.6175691983       -0.8078061564        1.2393539894
 C         -6.5699191982       -0.3120057611        0.3611733301
 C         -6.1874236993        0.4061568383       -0.7617075692
 C         -4.8428990651        0.6359200774       -1.0085253730
 H         -4.4980044625        1.1785718665       -1.8740075137
 H         -6.9295946200        0.7866342554       -1.4448333092
 H         -7.6165420304       -0.4898020767        0.5514224311
 H         -5.9178160814       -1.3692274344        2.1093624870
 H         -3.4953553655       -0.9537311777        1.6456049676
 H         -2.7618110451        2.4302480738        0.5708461414
 H         -1.5323045406        4.0067367603        1.9744608390
 H          0.6835061779        4.9770988043        2.4533894332
 H          2.7248949045        3.9022569020        1.5878453744
 H          3.7425539808        1.9592307015        0.6642161716
 C          3.2702550525        2.2285264966       -1.3930851861
 C          2.2756660916        2.8655882022       -2.3111640595
 C          3.3301525052        3.7042240315       -1.6577482046
 H          4.1372752739        4.0834708187       -2.2658925237
 H          3.0184795640        4.3695901896       -0.8674216158
 H          2.3543364936        2.6446202180       -3.3645542932
 H          1.2557902249        2.9545267706       -1.9684083656
 H          4.0341284203        1.6187730388       -1.8644466196
