  62
        -98.94312516
 C         -0.8643409273       -1.3546065339        0.0228527161
 C         -1.8578896641       -1.1091853990        0.9957337899
 C         -2.6597725196        0.1132666392        0.8233013745
 C         -2.4074078167        0.9272316802       -0.2186196051
 C         -3.0331703198        2.2500832827       -0.6097921788
 C         -4.4062594777        2.6552604715       -0.0769705414
 C         -5.5620613804        1.7576032024       -0.5143318605
 H         -6.4710928733        2.1184299810       -0.0278319271
 H         -5.6983294017        1.8612153616       -1.5935665925
 C         -5.3943508507        0.2711510849       -0.2083518286
 H         -6.3101311557       -0.2390346956       -0.5189683570
 H         -4.5794306360       -0.1386453989       -0.8084327836
 C         -5.1472917875       -0.0712455780        1.2603730299
 H         -5.2368323188       -1.1559737750        1.3625073173
 H         -5.9194002593        0.3872443114        1.8811033614
 C         -3.7663577450        0.3294215273        1.8139373792
 H         -3.5438915471       -0.3145845361        2.6699444228
 H         -3.7613157903        1.3565287303        2.1729274608
 H         -4.6034143161        3.6589352814       -0.4639597466
 H         -4.3829216430        2.7356823202        1.0060275162
 H         -2.3135534373        3.0221922325       -0.3149080755
 H         -3.0622606274        2.2481408125       -1.7036578703
 O         -1.4178059982        0.6611921371       -1.1194307593
 C         -0.6247902361       -0.4707457973       -1.0275609780
 O          0.2332953511       -0.5730262507       -1.9230103599
 O         -2.0671593706       -1.8780682125        1.9746883785
 C         -0.0133731516       -2.6037802212        0.1298248375
 C          1.4566349668       -2.2655274413        0.1560361950
 C          2.4226804287       -3.0849388646       -0.4165277194
 C          3.7620761832       -2.7441487670       -0.3502639175
 C          4.1663721613       -1.5785578115        0.2738596703
 C          3.2081360603       -0.7545587047        0.8534647818
 C          1.8699201681       -1.1087767731        0.8035761906
 H          1.1399621678       -0.4629717566        1.2695959704
 N          3.5788517878        0.4372686983        1.4971740155
 S          2.6163031330        1.7920473770        1.3902890737
 O          3.4984844203        2.8787740042        1.7676220302
 O          1.4376789404        1.6437936318        2.2095416788
 C          2.1502540121        2.0032582556       -0.3187415996
 C          0.9536895910        2.6383784366       -0.5776483706
 C          0.5935480434        2.8903390739       -1.8906535308
 C          1.4315611517        2.4967090377       -2.9204790607
 C          2.6303425685        1.8599370832       -2.6456443869
 C          3.0011826045        1.6165031150       -1.3335672712
 H          3.9302224212        1.1212274985       -1.1036389888
 H          3.2760121857        1.5456901493       -3.4497561319
 H          1.1433771152        2.6803717424       -3.9434690120
 H         -0.3433532039        3.3787967658       -2.1056687854
 H          0.3229599825        2.9067724823        0.2562631623
 H          4.5591117954        0.6720072912        1.4407860397
 H          5.2101425302       -1.3069188056        0.3169927430
 H          4.5007134274       -3.3901806281       -0.7994806237
 H          2.1249987881       -3.9916892478       -0.9169762905
 H         -0.2770593853       -3.0575392516        1.0978401151
 C         -0.3781583624       -3.5750404949       -0.9765318319
 C         -0.3412167244       -5.0545525609       -0.7387718366
 C         -1.6566728849       -4.3484692445       -0.8635677408
 H         -2.2473771901       -4.5041178742       -1.7538139416
 H         -2.2454938378       -4.1989554417        0.0298733224
 H         -0.0300929961       -5.6993685306       -1.5469320793
 H         -0.0447929446       -5.3976936328        0.2410263251
 H         -0.1022690981       -3.2047202523       -1.9577293214
