  62
        -98.94497988
 C         -1.8852010848       -0.7081638891       -0.1949497215
 C         -2.4525373445       -0.1070638719        0.9536625667
 C         -3.5346830046        0.8519457701        0.7061454177
 C         -3.8898922788        1.1445365027       -0.5583692984
 C         -4.9559336325        2.1218166065       -0.9739239586
 C         -6.3751608690        1.5372045096       -0.9699928326
 C         -6.9772073575        1.2985460709        0.4153613001
 H         -6.8964848495        2.2108594227        1.0073090181
 H         -8.0405874465        1.0970311767        0.2716542717
 C         -6.3523513649        0.1259279525        1.1841027902
 H         -7.1444232056       -0.4872965187        1.6195872080
 H         -5.7995172097       -0.5111970072        0.4899834343
 C         -5.4216070285        0.5395313989        2.3240113171
 H         -5.0086625005       -0.3664108996        2.7748855612
 H         -5.9930244358        1.0668492412        3.0911307982
 C         -4.2495802974        1.4297248507        1.8903191830
 H         -4.6036417665        2.4363243546        1.6683020339
 H         -3.5358974349        1.4840264675        2.7162400914
 H         -7.0176535888        2.2399121259       -1.5055965535
 H         -6.3681581337        0.5998922880       -1.5310599754
 H         -4.9210788187        3.0000203522       -0.3283497666
 H         -4.7133514216        2.4303192872       -1.9932049443
 O         -3.2838929571        0.5834705491       -1.6381734546
 C         -2.2813981792       -0.3654428885       -1.4880393943
 O         -1.8328729647       -0.8101319968       -2.5607000143
 O         -2.0655625616       -0.3527432480        2.1284252103
 C         -0.7805754575       -1.7341732142       -0.0158939266
 C          0.4943931326       -1.2327608133       -0.6481477039
 C          1.2600813282       -1.9782380053       -1.5338456312
 C          2.4137758115       -1.4449282092       -2.0839983784
 C          2.8343429530       -0.1700299359       -1.7559243275
 C          2.0871559870        0.5761723232       -0.8521192269
 C          0.9331921725        0.0404889741       -0.3027832577
 H          0.3500579532        0.6248437821        0.3983352338
 N          2.5177166044        1.8646606393       -0.4937158831
 S          4.1417189738        2.0794104130       -0.1498506448
 O          4.1890090465        3.1916533193        0.7733312900
 O          4.8790066937        2.2506849941       -1.3769729473
 C          4.6552007214        0.5723590625        0.6560013830
 C          5.6405526355       -0.2106772622        0.0902944418
 C          5.9998970010       -1.3929777036        0.7174751105
 C          5.3678410381       -1.7713567134        1.8914999997
 C          4.3822838895       -0.9715451607        2.4498866747
 C          4.0203779899        0.2123059834        1.8282537607
 H          3.2605019375        0.8573586739        2.2400451679
 H          3.8910479553       -1.2667206735        3.3632285348
 H          5.6438766798       -2.6943682324        2.3763743385
 H          6.7673417077       -2.0156113490        0.2868264430
 H          6.1034958459        0.1201521980       -0.8250361889
 H          1.9326548778        2.3183368597        0.1919379042
 H          3.7194263512        0.2651207365       -2.1907953514
 H          2.9915942118       -2.0304966519       -2.7824161059
 H          0.9484696132       -2.9730535745       -1.8050766390
 H         -0.6180104264       -1.7970031767        1.0704893477
 C         -1.2231688043       -3.0908918886       -0.5203785564
 C         -0.6357962945       -4.3394209283        0.0646470332
 C         -2.0515255504       -3.9602395093        0.3759910066
 H         -2.8514756141       -4.5382426156       -0.0619515639
 H         -2.2769625767       -3.5835321347        1.3631522629
 H         -0.4643854269       -5.1830668853       -0.5865482440
 H          0.1015053458       -4.2261880400        0.8446874068
 H         -1.4699890430       -3.0833750638       -1.5759754408
