  62
        -98.93786476
 C         -2.3052518295       -0.6609403804       -0.3899194693
 C         -3.6359027794       -1.1258557904       -0.2208344491
 C         -4.5306773995       -0.2732227602        0.5715401406
 C         -4.0423189896        0.8497566500        1.1279876202
 C         -4.8517767497        1.8389518302        1.9142968898
 C         -5.4320512998        2.9308355099        1.0041357194
 C         -6.1375869797        2.3899022894       -0.2395938204
 H         -6.5309812798        3.2479753492       -0.7888265907
 H         -5.4009972997        1.9060338192       -0.8851346302
 C         -7.2775845396        1.4048141394        0.0544115100
 H         -8.1351831897        1.6651376991       -0.5694622901
 H         -7.5920689797        1.5019097497        1.0941381099
 C         -6.9419160195       -0.0587395107       -0.2380924395
 H         -6.5410303995       -0.1476532210       -1.2510472695
 H         -7.8705936295       -0.6344324107       -0.2029087294
 C         -5.9558731995       -0.7226493703        0.7311834407
 H         -6.2932529895       -0.5732987799        1.7589124306
 H         -5.9558353594       -1.7964880503        0.5221439611
 H         -6.1312443498        3.5311961900        1.5890040892
 H         -4.6156176398        3.5801745998        0.6795668492
 H         -5.6552124997        1.3150662703        2.4286974100
 H         -4.2000468097        2.3038760105        2.6560342597
 O         -2.7489702496        1.2351597301        0.9951506601
 C         -1.8456039296        0.5001803499        0.2345544403
 O         -0.7030742696        0.9941893600        0.2059466802
 H          1.1373765605       -0.4493806305       -1.5009363993
 C          1.0870741406       -1.1673290102       -0.6971575591
 C         -0.1110808194       -1.8059060402       -0.4245772689
 C         -0.1650368293       -2.6974882098        0.6430446914
 C          0.9550879707       -2.9429871495        1.4135809515
 C          2.1521206606       -2.3054115695        1.1371397613
 C          2.2131328806       -1.4061280299        0.0818666110
 N          3.4247783005       -0.7581965499       -0.2267048892
 S          4.4079435705       -0.2324352194        1.0403451106
 O          5.0896432106       -1.3769241791        1.5934774910
 O          3.6539847504        0.5661923809        1.9809812404
 C          5.5697448104        0.7807551004        0.1463711103
 C          6.6949554105        0.1884116503       -0.3945341895
 C          7.5834076004        0.9713229701       -1.1143229597
 C          7.3323337003        2.3249847101       -1.2818022302
 C          6.1988637502        2.9055151002       -0.7324050704
 C          5.3058009703        2.1280767704       -0.0118497402
 H          4.4164500103        2.5390074804        0.4397582097
 H          6.0070546102        3.9585874801       -0.8621451208
 H          8.0252039303        2.9331326799       -1.8415967204
 H          8.4669252004        0.5247212801       -1.5409980896
 H          6.8511491205       -0.8649542896       -0.2308382191
 H          3.2815509405       -0.0072853001       -0.8889410095
 H          3.0297937406       -2.4799905392        1.7379215414
 H          0.8989442507       -3.6348652392        2.2408956718
 H         -1.1027300593       -3.1871012698        0.8689492716
 C         -1.3677995694       -1.5314828406       -1.2093763190
 H         -1.9123785093       -2.4838313407       -1.3168814487
 C         -1.0998464994       -1.0293582610       -2.6199533591
 C         -2.1890217995       -0.3676311714       -3.4089130294
 C         -0.9942352995        0.4230646488       -2.9720844096
 H         -0.2729707096        0.7124751686       -3.7228068897
 H         -1.1129473396        1.1463862591       -2.1810138099
 H         -3.1283721795       -0.1923410313       -2.9047588695
 H         -2.2930970994       -0.6134833618       -4.4548574193
 H         -0.4517955994       -1.7075564512       -3.1670720889
 O         -4.0554149194       -2.2080908706       -0.7108573588
