  62
        -98.94488624
 C          1.9378652513       -0.4771233379        0.6462049251
 C          2.9976135261       -1.3004702362        0.1948646554
 C          4.3405855045       -0.7166022059        0.2769581446
 C          4.4995971479        0.5224762008        0.7767795695
 C          5.8075411313        1.2475038123        0.9436956620
 C          6.2892043597        1.9639215658       -0.3254776386
 C          6.8109927358        1.0463275807       -1.4319771690
 H          7.3127082323        1.6816982344       -2.1645553449
 H          7.5612435644        0.3715349535       -1.0185998250
 C          5.7222600985        0.2337919701       -2.1467680652
 H          4.7445587227        0.6758851791       -1.9410523505
 H          5.8771296064        0.2884360787       -3.2266835819
 C          5.6860173669       -1.2469358409       -1.7685244273
 H          6.6125640437       -1.7293952415       -2.0873508081
 H          4.8589570978       -1.7179435225       -2.3057477737
 C          5.4885193738       -1.5106098409       -0.2699027431
 H          6.4035951240       -1.2828632265        0.2761810047
 H          5.2541434882       -2.5694056174       -0.1356123399
 H          7.0964224870        2.6389949855       -0.0319427234
 H          5.4703089224        2.5743943311       -0.7132305754
 H          5.6498661533        1.9963193576        1.7229351862
 H          6.5737191615        0.5495761571        1.2824492155
 O          3.4564892086        1.2748413290        1.2181164918
 C          2.1513126497        0.8068166658        1.1474903892
 O          1.2968414806        1.6134668818        1.5606974365
 O          2.8280628369       -2.4648169041       -0.2557548686
 C          0.5180370557       -1.0125030965        0.5758708585
 C         -0.3126213264       -0.1171887090       -0.3086738994
 C          0.0898677456        0.0632841092       -1.6307926584
 C         -0.6097513003        0.9016348751       -2.4751949984
 C         -1.7343470262        1.5707664088       -2.0229778259
 C         -2.1477159903        1.3953892556       -0.7086119997
 C         -1.4416697627        0.5492887698        0.1381185914
 H         -1.7748895576        0.4500084717        1.1568370480
 N         -3.2731730135        2.0793495161       -0.2218193692
 S         -4.4239263879        1.2921845844        0.6983616180
 O         -5.5597041162        2.1875568036        0.6972204672
 O         -3.8892137246        0.9410157063        1.9883701116
 C         -4.8101762569       -0.1753515433       -0.2384562160
 C         -4.1615616323       -1.3596147228        0.0463432173
 C         -4.4251220051       -2.4711825078       -0.7388190829
 C         -5.3256814724       -2.3799299671       -1.7887072265
 C         -5.9723137618       -1.1833408393       -2.0592826932
 C         -5.7102509542       -0.0677913187       -1.2811090842
 H         -6.1983425371        0.8783792364       -1.4506201013
 H         -6.6756623572       -1.1165975806       -2.8736977355
 H         -5.5265982801       -3.2478140913       -2.3968080338
 H         -3.9250637698       -3.4030127495       -0.5276208976
 H         -3.4713168855       -1.3941161768        0.8727505093
 H         -3.7133673503        2.6884436114       -0.8958861719
 H         -2.2787101163        2.2341620905       -2.6777969312
 H         -0.2809100653        1.0359696643       -3.4946483948
 H          0.9704747260       -0.4576759912       -1.9813017910
 H          0.6046306007       -1.9948800765        0.0885869355
 C         -0.0475040438       -1.2091537494        1.9654772197
 C         -1.1019069651       -2.2462829211        2.2063252797
 C          0.2908958443       -2.4606564132        2.7165243744
 H          0.4709673543       -2.3910015725        3.7788048451
 H          0.9129019711       -3.1873815760        2.2145942496
 H         -1.8844425843       -2.0290798291        2.9186295377
 H         -1.4195788278       -2.8376144848        1.3605935610
 H         -0.0970949319       -0.2882641305        2.5361944229
