  62
        -98.94441660
 C         -2.6949696798       -1.1803871093        0.1316545800
 C         -2.4925712695       -0.2399333296       -0.9079894502
 C         -3.2586918993        1.0107512606       -0.7994566106
 C         -4.1134959894        1.1791504409        0.2251536392
 C         -4.9045041493        2.4263566711        0.4896341488
 C         -4.1368595193        3.3796650012        1.4162882687
 C         -2.6894641692        3.6272107009        0.9895803789
 H         -2.2590347792        4.3394995010        1.6968872488
 H         -2.1198340493        2.6993924808        1.0857156392
 C         -2.5310151688        4.1687418505       -0.4380009812
 H         -1.8043980787        4.9838092004       -0.4240874413
 H         -3.4784812387        4.5832231406       -0.7849523315
 C         -2.0248341988        3.1434146302       -1.4548554309
 H         -1.1199233290        2.6610757801       -1.0726183306
 H         -1.7436669886        3.6795247900       -2.3657894310
 C         -3.0273916889        2.0534376903       -1.8563521108
 H         -3.9698681688        2.5144730304       -2.1588933811
 H         -2.6116247189        1.5224522400       -2.7178169206
 H         -4.6728105391        4.3296319313        1.4549060784
 H         -4.1274068895        2.9524120314        2.4215314888
 H         -5.1244259090        2.9191446310       -0.4551782814
 H         -5.8425380794        2.1438681414        0.9702251687
 O         -4.3161769298        0.2351466312        1.1787086994
 C         -3.5932120500       -0.9443230489        1.1763779497
 O         -3.8421270002       -1.6989174287        2.1372425999
 O         -1.7199210393       -0.4202050199       -1.8868563300
 C         -1.8924453400       -2.4716421394        0.2118281904
 C         -0.4772586500       -2.0807982096        0.5615843906
 C         -0.1239437602       -1.9092623994        1.8970575206
 C          1.1309704598       -1.4421810395        2.2409428907
 C          2.0524472700       -1.1162879999        1.2605480708
 C          1.7038467902       -1.2718306101       -0.0736150192
 C          0.4574791902       -1.7768475400       -0.4162575793
 H          0.1962317104       -1.8777402602       -1.4577195794
 N          2.6220245105       -0.8986224005       -1.0760391192
 S          3.1422790307        0.7023890094       -1.0248015094
 O          2.1718168307        1.5604440898       -0.3849804098
 O          3.5024676410        1.0342298891       -2.3864644694
 C          4.6273727005        0.6243315494       -0.0436413692
 C          5.6378548205       -0.2212472908       -0.4582363288
 C          6.8024171803       -0.2893607209        0.2895360014
 C          6.9378797902        0.4873864894        1.4307421613
 C          5.9160215503        1.3343476096        1.8314775909
 C          4.7476409305        1.4057998297        1.0885850707
 H          3.9236929105        2.0447114599        1.3643492604
 H          6.0228955403        1.9382333998        2.7182995608
 H          7.8452360201        0.4328301493        2.0112679715
 H          7.5993610103       -0.9466586611       -0.0188145983
 H          5.4933412605       -0.8034548710       -1.3528255987
 H          2.2871973506       -1.1103996706       -2.0062832292
 H          3.0253642800       -0.7307646500        1.5190967309
 H          1.3912454696       -1.3188537793        3.2812819407
 H         -0.8568735004       -2.1265844691        2.6617564405
 H         -2.3116845803       -3.0348363392        1.0556074604
 C         -2.0103347100       -3.3139576597       -1.0404606094
 C         -1.5620553002       -4.7432041598       -0.9998743790
 C         -3.0222017201       -4.4176345195       -1.0845584394
 H         -3.5403838200       -4.6029146597       -2.0135212894
 H         -3.6328749403       -4.5709381192       -0.2067562794
 H         -1.0759854501       -5.1567709200       -1.8701642189
 H         -1.1802746704       -5.1175256696       -0.0620486889
 H         -1.8507964597       -2.7571895299       -1.9548409195
