  62
        -98.94518019
 C         -0.9097468173       -2.0587589408       -0.4183453796
 C          0.1257079729       -1.8494033204       -1.3653270793
 C          1.4828503030       -2.2330918696       -0.9565892788
 C          1.6718143129       -2.7486486793        0.2714139613
 C          3.0002934129       -3.1613824986        0.8352972917
 C          3.6681601421       -2.0095491581        1.5975263318
 C          3.7289349516       -0.7007148582        0.8098483117
 H          2.7136139414       -0.3129295587        0.6937782913
 H          4.2674486810        0.0229593122        1.4267106218
 C          4.4081114021       -0.8156806979       -0.5619996881
 H          5.0861396317        0.0313877524       -0.6853269580
 H          5.0123834526       -1.7230229976       -0.5990842078
 C          3.4466343624       -0.7910415086       -1.7510547284
 H          2.7820003919        0.0695651911       -1.6532158887
 H          4.0369441426       -0.6510248784       -2.6605647482
 C          2.5921238132       -2.0486916291       -1.9546499385
 H          2.1026138734       -1.9629836494       -2.9293664687
 H          3.2368261636       -2.9303335387       -1.9716763382
 H          3.1016952417       -1.8234212883        2.5133832416
 H          4.6776976322       -2.3193727275        1.8759883121
 H          2.8356675832       -3.9921887286        1.5240770118
 H          3.6448980434       -3.4962118283        0.0243426620
 O          0.6619595127       -2.9330252598        1.1553322110
 C         -0.6469659074       -2.5685582405        0.8552132406
 O         -1.4437916076       -2.7755512109        1.7880385904
 O         -0.0837796170       -1.3681678306       -2.5123245794
 C         -2.3025862074       -1.6219856416       -0.8417940100
 C         -2.4744195483       -0.1400095817       -0.6127677902
 C         -3.1390840884        0.6625279579       -1.5333814305
 C         -3.2596735692        2.0248249278       -1.3227407907
 C         -2.6777387699        2.6199026582       -0.2173579706
 C         -1.9959950997        1.8288486887        0.6990132097
 C         -1.9318270089        0.4557320087        0.5164575099
 H         -1.4128751988       -0.1443317909        1.2483624901
 N         -1.3070802804        2.3918842792        1.7950408299
 S          0.3549511198        2.1395143301        1.7820177004
 O          0.6501086205        0.7512278903        2.0176524006
 O          0.8834493190        3.0830254005        2.7433136004
 C          0.8312510300        2.6140023702        0.1311198705
 C          0.7277364008        1.6834433000       -0.8823979695
 C          0.9757959810        2.0777165200       -2.1876480994
 C          1.3320206604        3.3903411802       -2.4543096295
 C          1.4439360296        4.3125652004       -1.4238699195
 C          1.1815786094        3.9267376804       -0.1192815896
 H          1.2520997087        4.6105355805        0.7113086804
 H          1.7266877691        5.3312833105       -1.6349240496
 H          1.5236624905        3.6937960602       -3.4712717794
 H          0.8769683516        1.3473817999       -2.9759908494
 H          0.4543776213        0.6665213299       -0.6473258894
 H         -1.4922760009        3.3773634291        1.9265040897
 H         -2.7381989705        3.6874078082       -0.0692222707
 H         -3.7866132194        2.6345201574       -2.0402326009
 H         -3.5458181379        0.2151417375       -2.4280647406
 H         -2.3372285570       -1.7860145418       -1.9314963700
 C         -3.4215770571       -2.4437024222       -0.2208349403
 C         -4.2827780578       -1.9335217125        0.8913249194
 C         -4.8578079173       -2.0973321930       -0.4816569207
 H         -5.5553714568       -2.9023422434       -0.6559445409
 H         -5.0658704176       -1.2003473731       -1.0439991109
 H         -4.5626725776       -2.6288748826        1.6675246494
 H         -4.0970980984       -0.9347332224        1.2558828794
 H         -3.1745179166       -3.4997114020       -0.1876572901
