  62
        -98.93647721
 C         -1.8696989459       -0.7226643931        0.0279609155
 C         -2.4457684053        0.5225469489        0.3872595240
 C         -3.7831313693        0.8190129026       -0.1515783279
 C         -4.3836026855       -0.0811162816       -0.9484413237
 C         -5.7166179744        0.0175195809       -1.6475060789
 C         -6.8899759501        0.6140855944       -0.8593808880
 C         -6.8803332002        0.3100267804        0.6457931718
 H         -7.8536603683       -0.0917298310        0.9333546273
 H         -6.1335618860       -0.4539442762        0.8684466955
 C         -6.6122631067        1.5490970206        1.5032740050
 H         -7.1891063066        2.3850255238        1.1015363776
 H         -6.9736088599        1.3602775572        2.5170584541
 C         -5.1455174948        1.9631557082        1.6165510263
 H         -4.5992150989        1.2325075539        2.2192539584
 H         -5.1045112165        2.9139837927        2.1536578810
 C         -4.3958028404        2.1194152452        0.2832596552
 H         -5.0418876847        2.5366952467       -0.4854931213
 H         -3.5606943164        2.8066197103        0.4457373785
 H         -6.9151591276        1.6932625432       -1.0035725017
 H         -7.8031905704        0.2166487997       -1.3056233527
 H         -5.5745559872        0.5921181944       -2.5675568278
 H         -5.9576852318       -1.0065222616       -1.9427931352
 O         -3.7961043759       -1.2666195752       -1.2676267251
 C         -2.5405656528       -1.6231718245       -0.7986889844
 O         -2.1681828116       -2.7462057417       -1.1876984073
 H          1.1782623324        1.0796970042        0.3176690179
 C          1.3257243059        0.3518682347       -0.4667606141
 C          0.5566107139       -0.8037644190       -0.4975165717
 C          0.7529770848       -1.7098477943       -1.5352996379
 C          1.6933144545       -1.4565777477       -2.5165900486
 C          2.4683395340       -0.3107144173       -2.4744647155
 C          2.2797695331        0.6015155274       -1.4439665373
 N          3.0542314002        1.7755938768       -1.3711834501
 S          3.8921223055        2.0761705919        0.0474937293
 O          2.9790412109        2.4412318434        1.0989870897
 O          4.8853231962        3.0636742724       -0.3130318318
 C          4.6791047449        0.5190196073        0.4157649008
 C          4.0409903523       -0.3843392240        1.2411687420
 C          4.6165779414       -1.6286276522        1.4438583728
 C          5.8138077077       -1.9454821638        0.8209708468
 C          6.4464842539       -1.0244165864       -0.0002429654
 C          5.8723293529        0.2183882812       -0.2118058712
 H          6.3328827768        0.9659103581       -0.8373164243
 H          7.3801907536       -1.2726183969       -0.4786248779
 H          6.2564889107       -2.9161608767        0.9791956479
 H          4.1248873907       -2.3452933607        2.0821358397
 H          3.1139836730       -0.0964831361        1.7098009492
 H          3.6664786510        1.9069553431       -2.1642736490
 H          3.2060511340       -0.1171097980       -3.2385660698
 H          1.8296346769       -2.1638392641       -3.3204304655
 H          0.1397254114       -2.5952508197       -1.5845988051
 C         -0.4838295038       -1.0287488309        0.5738332232
 H         -0.3170813458       -0.2784237576        1.3591042648
 C         -0.3789775871       -2.4066274863        1.1956418081
 C          0.7159883567       -2.6779602642        2.1814768360
 C         -0.7048114094       -2.5784555949        2.6476711302
 H         -1.2136385421       -3.4787111469        2.9580440449
 H         -0.9997421643       -1.6987093141        3.2016938256
 H          1.3815008424       -1.8629594387        2.4229986321
 H          1.1871137006       -3.6485153933        2.1731082721
 H         -0.6690433885       -3.2074084106        0.5288000490
 O         -1.8637976637        1.3587910978        1.1297413952
