  62
        -98.94793714
 C         -1.1566355822       -1.1981244420        0.4721206321
 C         -1.5476111167       -0.4816740081       -0.6845231703
 C         -2.2981838549        0.7576300145       -0.4384500623
 C         -2.4651403319        1.2000598572        0.8208553823
 C         -3.1595797774        2.4715868452        1.2272697551
 C         -4.6826405042        2.3330245090        1.3588907075
 C         -5.4384838363        2.1938918666        0.0367111524
 H         -6.4997402466        2.3180569724        0.2608967537
 H         -5.1503557270        3.0055112870       -0.6319817274
 C         -5.2368170627        0.8450341104       -0.6682802853
 H         -4.8312962366        0.1204127742        0.0417719576
 H         -6.2036404486        0.4595690978       -0.9995429145
 C         -4.3265990656        0.9003773961       -1.8953510393
 H         -4.2232883658       -0.1133042462       -2.2903668100
 H         -4.7914448497        1.5171774436       -2.6674787192
 C         -2.9197816149        1.4471613414       -1.6164990853
 H         -2.9667690466        2.5242151132       -1.4543372134
 H         -2.2956255267        1.2426577955       -2.4898880019
 H         -4.9006425943        1.4728471557        1.9963518573
 H         -5.0481208669        3.2261270987        1.8710077724
 H         -2.7527737556        2.7498339620        2.2021162093
 H         -2.9251566539        3.2638306630        0.5156880156
 O         -1.9867086157        0.5278686738        1.9036277391
 C         -1.3739460413       -0.7077644342        1.7601592502
 O         -1.0684551303       -1.2583117009        2.8381326241
 O         -1.2973544704       -0.8530547143       -1.8591924189
 C         -0.4534917427       -2.5380995754        0.3401273912
 C          0.8945679835       -2.3365973513       -0.3093852360
 C          1.2725288197       -2.9345775064       -1.5037330792
 C          2.5275650563       -2.6958302290       -2.0367067478
 C          3.4249874913       -1.8646526816       -1.3930745403
 C          3.0604669428       -1.2688120485       -0.1897250816
 C          1.8027403097       -1.5077444726        0.3401338913
 H          1.5269252885       -1.0492024980        1.2792472591
 N          3.9710674339       -0.4527198728        0.5034120795
 S          3.4870413316        0.9888115081        1.1922881057
 O          4.7283588728        1.6627321854        1.5068399259
 O          2.5953507440        0.7488744561        2.2974699365
 C          2.6510970308        1.8659814677       -0.1140232083
 C          1.2732370045        1.8629448751       -0.1730188491
 C          0.6480235524        2.5215135717       -1.2199212362
 C          1.4069546993        3.1595432669       -2.1882359327
 C          2.7919452883        3.1531705056       -2.1156536934
 C          3.4220980988        2.4996669874       -1.0700366461
 H          4.4947805113        2.4847362229       -0.9648313059
 H          3.3787148834        3.6537658965       -2.8688293164
 H          0.9124065671        3.6659335353       -3.0019284668
 H         -0.4281802035        2.5200614556       -1.2729990325
 H          0.7109824618        1.3543430651        0.5954637192
 H          4.8611990004       -0.3405427697        0.0394199611
 H          4.4038825758       -1.6820082638       -1.8092253248
 H          2.8087680579       -3.1620917923       -2.9685583652
 H          0.5843462436       -3.5820722979       -2.0205533865
 H         -0.2779421236       -2.8876933011        1.3680888708
 C         -1.3383788657       -3.5393867473       -0.3716320137
 C         -1.1217358550       -5.0071012086       -0.1635610063
 C         -2.3228520365       -4.3351014069        0.4292861539
 H         -3.2930947191       -4.5375041094        0.0008413775
 H         -2.3442624707       -4.1705160199        1.4972310265
 H         -1.2695694230       -5.6751025747       -0.9984229721
 H         -0.3270463291       -5.3042106932        0.5040936563
 H         -1.6529791751       -3.2014649653       -1.3517126541
