  62
        -98.94367782
 C         -1.9318066107       -1.2192005596        0.1537568413
 C         -2.4741343909       -0.3737702691        1.1552303407
 C         -3.8547380108        0.0728598909        0.9480108001
 C         -4.5230602905       -0.3193925595       -0.1520106700
 C         -5.9484936403        0.0217690404       -0.4920339406
 C         -6.1198876900        1.3819814501       -1.1816709113
 C         -5.9249092502        2.5984692705       -0.2759532617
 H         -6.2838957900        3.4697166203       -0.8274449322
 H         -6.5510660005        2.4943174709        0.6107683781
 C         -4.4695972904        2.8466533306        0.1449298186
 H         -3.7988905002        2.2916957102       -0.5155471509
 H         -4.2308341702        3.9057643905        0.0236168283
 C         -4.1562000809        2.4752740412        1.5944689089
 H         -4.7250385411        3.1196502915        2.2685752484
 H         -3.0931277409        2.6582207712        1.7716037392
 C         -4.4522938311        1.0125876614        1.9513777594
 H         -3.9975284515        0.7978503318        2.9215447297
 H         -5.5279870511        0.8549537915        2.0269229991
 H         -5.4240772297        1.4381685197       -2.0220661211
 H         -7.1337812999        1.4163882900       -1.5869188516
 H         -6.2991565702       -0.7558025899       -1.1740473504
 H         -6.5575807507       -0.0082796392        0.4118855492
 O         -3.9630048602       -1.1138990000       -1.0997526595
 C         -2.6524100903       -1.5614873500       -0.9911848488
 O         -2.2766136800       -2.2473392405       -1.9596480984
 O         -1.8335163013       -0.0169132787        2.1808182608
 C         -0.5003194008       -1.6937873596        0.3424136420
 C          0.4109645596       -0.8604931101       -0.5245555481
 C          0.7428387300       -1.2154806906       -1.8264586178
 C          1.5771177203       -0.4082428310       -2.5800859179
 C          2.1073384602        0.7549701592       -2.0504024782
 C          1.7798822898        1.1171630997       -0.7506432885
 C          0.9349586995        0.3138747901        0.0000845116
 H          0.6696765692        0.6033737206        1.0087155714
 N          2.3657848097        2.2730927599       -0.1882211288
 S          4.0410490197        2.1969129999       -0.0765949782
 O          4.4039897694        3.0875085503        1.0027574216
 O          4.6154372901        2.4939563993       -1.3640057381
 C          4.3609299594        0.4969899900        0.3606376127
 C          4.7709004897       -0.3942447704       -0.6100453168
 C          4.9035992595       -1.7324926103       -0.2765289462
 C          4.6218712090       -2.1546624497        1.0132868039
 C          4.2179632387       -1.2456319292        1.9793916134
 C          4.0799349689        0.0929928606        1.6507567328
 H          3.7687909687        0.8284439610        2.3757193623
 H          4.0013851484       -1.5763642088        2.9827748935
 H          4.7174515588       -3.1984563796        1.2684226644
 H          5.2175516497       -2.4421008506       -1.0246861258
 H          4.9783141400       -0.0253916209       -1.6008280569
 H          1.9765389794        2.5091997804        0.7140874610
 H          2.7752076005        1.3842930889       -2.6164995982
 H          1.8223290707       -0.6916439615       -3.5922731777
 H          0.3256316901       -2.1134656208       -2.2516808276
 H         -0.2620350111       -1.4608968292        1.3892332019
 C         -0.3173477108       -3.1814804697        0.1270167127
 C          0.9853946590       -3.8048766096        0.5290199034
 C         -0.2571780413       -4.0910855492        1.3157074031
 H         -0.7053022413       -5.0702072492        1.2362936734
 H         -0.3578023116       -3.6447523588        2.2942550829
 H          1.3936553092       -4.5883349299       -0.0901440761
 H          1.7292413789       -3.1561288695        0.9673206434
 H         -0.8076851405       -3.5570798301       -0.7613951773
