  62
        -98.93529172
 C         -2.3316243528       -1.1410311585       -0.5344012444
 C         -3.5642775012       -0.9081529947        0.1250735429
 C         -4.2720721403        0.3394878869       -0.2073310556
 C         -3.7166391635        1.1852992588       -1.0921335442
 C         -4.2343555490        2.5280757755       -1.5281722092
 C         -3.6266614016        3.6506519232       -0.6698649060
 C         -4.3914336231        3.9640183529        0.6155457464
 H         -3.7906138143        4.6773612217        1.1844405422
 H         -5.3327049933        4.4562346258        0.3620106430
 C         -4.6949388989        2.7569475788        1.5069738511
 H         -3.8153975552        2.1123194493        1.5642024923
 H         -4.8884417470        3.1265220928        2.5159325026
 C         -5.9103559561        1.9463796954        1.0324784096
 H         -6.4493704727        2.5207556475        0.2793964751
 H         -6.5996266647        1.8071182594        1.8678196052
 C         -5.5912090877        0.5475565857        0.4855889786
 H         -5.5860913217       -0.1722625798        1.3100303082
 H         -6.3931126610        0.2385033338       -0.1931492970
 H         -2.5980929561        3.3694174987       -0.4270838709
 H         -3.5819552055        4.5635808358       -1.2672990358
 H         -3.9087846875        2.6658695814       -2.5613117221
 H         -5.3195040369        2.5520925199       -1.4960324089
 O         -2.5244760417        0.9302564850       -1.6958775772
 C         -1.8001119274       -0.2209735673       -1.4376253348
 O         -0.7333264139       -0.2943515342       -2.0789749231
 O         -4.0556220005       -1.7138849501        0.9605464335
 C         -1.5824025712       -2.4183236246       -0.1873710828
 C         -0.4148146463       -2.0641038959        0.7013121210
 C         -0.5624033319       -2.0971579077        2.0843853993
 C          0.4744402607       -1.7101789785        2.9138736971
 C          1.6771504234       -1.2762194522        2.3842417187
 C          1.8284318792       -1.2257185268        1.0049839502
 C          0.7931266011       -1.6319550784        0.1741412823
 H          0.9131273763       -1.5671815098       -0.8962599725
 N          3.0460598844       -0.7751390484        0.4442006997
 S          3.5401272241        0.7787322708        0.8926580047
 O          3.9199059882        0.7547638014        2.2827213065
 O          2.5352980258        1.7559496539        0.5295827383
 C          4.9900741918        0.9645734325       -0.1253036053
 C          6.1941265661        0.4692134125        0.3371469091
 C          7.3172216578        0.5821394466       -0.4665966787
 C          7.2174432368        1.1832391317       -1.7125065262
 C          6.0016748987        1.6754012834       -2.1629899371
 C          4.8741724083        1.5648140765       -1.3642935013
 H          3.9104329854        1.9400114898       -1.6713093883
 H          5.9266783720        2.1437812861       -3.1312047960
 H          8.0926437611        1.2710152703       -2.3366940888
 H          8.2644885026        0.2019095652       -0.1200939752
 H          6.2235805246        0.0172867857        1.3145523297
 H          2.9976153539       -0.8058148749       -0.5672398498
 H          2.4849889832       -0.9522593858        3.0193829217
 H          0.3457186802       -1.7429205506        3.9853980252
 H         -1.5081599555       -2.4120168675        2.5024775860
 H         -2.2888262489       -3.0123143227        0.4074741021
 C         -1.1870066322       -3.2204808268       -1.4096301908
 C         -0.7781361373       -4.6518875753       -1.2381483495
 C         -2.0881146154       -4.3190737709       -1.8848262503
 H         -2.1940825769       -4.4731166934       -2.9481904268
 H         -2.9946865987       -4.4989929431       -1.3258202854
 H          0.0173866610       -5.0384037405       -1.8562872935
 H         -0.7951258953       -5.0570394830       -0.2377716834
 H         -0.6818437565       -2.6368597092       -2.1683058079
