  62
        -98.93876640
 C         -1.8552381835       -0.7118352843        0.8711366928
 C         -2.1705526587        0.6713285505        0.8278277177
 C         -3.5883703843        1.0172188143        0.6707699591
 C         -4.4977264210        0.0289795990        0.5944740332
 C         -5.9691503821        0.2309079132        0.3789004054
 C         -6.3177575650        0.2168568991       -1.1160786376
 C         -5.4256320883        1.1206192656       -1.9672623583
 H         -4.4055819882        0.7294326387       -1.9547035266
 H         -5.7826788174        1.0525302148       -2.9972298693
 C         -5.4088499081        2.5914564062       -1.5279998564
 H         -5.5041592393        3.2223727398       -2.4142598732
 H         -6.2692347017        2.7973220206       -0.8901695738
 C         -4.1298185513        3.0239457062       -0.8086685090
 H         -4.1315188912        4.1149991036       -0.7393021319
 H         -3.2592927016        2.7348748552       -1.4029674978
 C         -3.9459923676        2.4755651935        0.6119300915
 H         -4.8419903022        2.6765385075        1.2028263084
 H         -3.1058163353        3.0076640182        1.0674118726
 H         -7.3602603120        0.5195873248       -1.2303882804
 H         -6.2187957769       -0.8067579057       -1.4847902962
 H         -6.5044034242       -0.5801806270        0.8754999820
 H         -6.2694903953        1.1774854958        0.8241266372
 O         -4.1649836845       -1.2834938254        0.6581633532
 C         -2.8409777256       -1.6958911432        0.7805760001
 O         -2.7075145704       -2.9323040709        0.7970169199
 O         -1.2991616128        1.5770317580        0.9247032336
 C         -0.3863123437       -1.0590040005        1.0241769739
 C          0.2912837501       -1.2468988537       -0.3088484614
 C         -0.2832990695       -2.0031997509       -1.3249905495
 C          0.3799024446       -2.1769390103       -2.5263455604
 C          1.6322837748       -1.6235775758       -2.7283919124
 C          2.2149765927       -0.8659820969       -1.7195719519
 C          1.5321121369       -0.6674545193       -0.5278078607
 H          1.9778837120       -0.0577730683        0.2424255163
 N          3.4795998301       -0.2870682964       -1.8862822739
 S          4.5473689452       -0.2473611302       -0.5954206881
 O          5.8533221405       -0.1395144866       -1.2087392687
 O          4.3471565388       -1.3712231305        0.2882622899
 C          4.1710421997        1.2781801959        0.2396788471
 C          3.8978553879        1.2713469025        1.5929992216
 C          3.6160089927        2.4716523385        2.2259550744
 C          3.6145387722        3.6513376461        1.4981253826
 C          3.8951097383        3.6416658964        0.1400586848
 C          4.1775828964        2.4451201292       -0.4983672626
 H          4.4024311305        2.3975338863       -1.5507734515
 H          3.8914822362        4.5619498631       -0.4215425653
 H          3.3912350440        4.5832283043        1.9931648611
 H          3.3951063925        2.4804377989        3.2813518046
 H          3.9026465396        0.3305082168        2.1213943539
 H          3.9412870248       -0.5103041815       -2.7557529870
 H          2.1547339285       -1.7756614307       -3.6607008522
 H         -0.0767482394       -2.7640642489       -3.3091125052
 H         -1.2467739804       -2.4617341022       -1.1598300051
 H          0.0620550885       -0.1666823851        1.4905530436
 C         -0.1303584831       -2.2287257998        1.9644422272
 C          0.2777195508       -3.5911404256        1.5010932240
 C          1.2678896409       -2.7170607654        2.2076109216
 H          1.5539323302       -2.9740438452        3.2167032297
 H          2.0687059434       -2.2908800906        1.6196473247
 H         -0.1368922595       -4.4417695662        2.0200970883
 H          0.4048532081       -3.7524654769        0.4422350492
 H         -0.7878307441       -2.1976913048        2.8280284966
