  62
        -98.93994237
 C         -2.2582798201       -0.9403742486        0.6553252709
 C         -3.3584648000       -0.7697921494       -0.2205218794
 C         -4.2310545501        0.3814231908        0.0601317997
 C         -3.9484500003        1.1942600716        1.0931913691
 C         -4.7198453905        2.4311030618        1.4506142881
 C         -4.1439087005        3.6698523613        0.7504829872
 C         -3.9197381703        3.4839991602       -0.7503113126
 H         -3.5423463203        4.4313297399       -1.1415864733
 H         -3.1344541502        2.7394733101       -0.9029996220
 C         -5.1730295602        3.0691614095       -1.5337486025
 H         -6.0654888203        3.2857938499       -0.9456805027
 H         -5.2305541701        3.6692694288       -2.4442049529
 C         -5.1938639600        1.6016444392       -1.9647629514
 H         -4.2571848799        1.3553186689       -2.4710693411
 H         -6.0024203799        1.4714795386       -2.6888557214
 C         -5.4169187601        0.5809268900       -0.8420237006
 H         -6.2985994401        0.8587456503       -0.2612892210
 H         -5.6034357299       -0.3903476104       -1.3090074499
 H         -3.1834987106        3.9126555717        1.2116344671
 H         -4.8233038706        4.5075826514        0.9182246465
 H         -4.6578126906        2.5737027326        2.5307910780
 H         -5.7626997404        2.2949328315        1.1707227480
 O         -2.8854378204        0.9985936723        1.9159793994
 C         -2.0212953103       -0.0639647878        1.7188108603
 O         -1.0983923604       -0.1302685071        2.5573695004
 O         -3.6248898198       -1.5298680401       -1.1878087888
 C         -1.2541596200       -2.0735267286        0.5038946019
 C         -0.2793787399       -1.7586710394       -0.6062978182
 C         -0.6279374697       -1.8719689004       -1.9482208082
 C          0.2877712904       -1.5567959611       -2.9353359983
 C          1.5607074003       -1.1251133907       -2.6081515685
 C          1.9201278201       -1.0105092797       -1.2699168185
 C          0.9999355000       -1.3281222790       -0.2810565984
 H          1.2812666299       -1.2164822782        0.7560092915
 N          3.2227668401       -0.6159687993       -0.9159781387
 S          3.4509831798        0.3254715617        0.4670268507
 O          3.3890655097       -0.5284873174        1.6259770313
 O          2.5597674097        1.4645732916        0.4457718897
 C          5.1365834798        0.8480248817        0.2074416705
 C          6.1499504098       -0.0565394481        0.4641369113
 C          7.4626202998        0.3260776319        0.2397739712
 C          7.7394288998        1.5999203116       -0.2345457798
 C          6.7126066997        2.4974699513       -0.4850861306
 C          5.3968904797        2.1203393013       -0.2644606704
 H          4.5666298697        2.7861590011       -0.4376964510
 H          6.9307474397        3.4880633610       -0.8503317013
 H          8.7620694098        1.8959307015       -0.4071939099
 H          8.2634935599       -0.3683001379        0.4361082618
 H          5.8864376099       -1.0308945978        0.8410168420
 H          3.7357130401       -0.2348174799       -1.7001007989
 H          2.2728979604       -0.8793505513       -3.3813637186
 H          0.0046978705       -1.6431917719       -3.9735870683
 H         -1.6282936896       -2.1791652607       -2.2083891581
 H         -0.6857123601       -2.0882181179        1.4442807520
 C         -1.9085749999       -3.4286953588        0.3206046528
 C         -1.1014943498       -4.6606850986        0.5935296438
 C         -2.2047531699       -4.2645990080        1.5273408934
 H         -3.1105251699       -4.8520405580        1.5369122237
 H         -1.9361750501       -3.8605750172        2.4931165631
 H         -1.2474427396       -5.5231125891       -0.0383010555
 H         -0.0831820098       -4.5244542482        0.9265968439
 H         -2.6232719198       -3.4603738595       -0.4903709073
