  62
        -98.93538564
 C         -2.5755355102       -0.0009703853        0.1226608093
 C         -2.4771879167        1.1269613382        0.9712045750
 C         -1.9839109824        2.3759530886        0.3682480909
 C         -1.6402416946        2.3769524354       -0.9312488806
 C         -1.0217972488        3.5005332677       -1.7160196035
 C          0.5124169554        3.3803505009       -1.6915233254
 C          1.1916608256        4.0924895897       -0.5234304566
 H          2.2549501011        3.8458568137       -0.5695888860
 H          1.0940759088        5.1734581814       -0.6495044729
 C          0.6628819941        3.7066014775        0.8604253688
 H          1.4316023237        3.9537089445        1.5961695230
 H          0.5206069176        2.6236921302        0.9042374932
 C         -0.6359853794        4.4367006299        1.2350406543
 H         -0.7946865628        5.2578947838        0.5359003996
 H         -0.5229711927        4.8872164223        2.2235026817
 C         -1.8949525458        3.5594185867        1.2931404649
 H         -1.9915512684        3.1316560304        2.2962968594
 H         -2.7761475993        4.1911433713        1.1357568965
 H          0.9132902563        3.7903977252       -2.6209661968
 H          0.7674354123        2.3175759209       -1.6581665206
 H         -1.3498712043        4.4648668635       -1.3386201471
 H         -1.3653424601        3.3879056556       -2.7463885543
 O         -1.7652272187        1.2765666474       -1.7196131857
 C         -2.1797673822        0.0569642774       -1.2153778127
 O         -2.1669213882       -0.8654252340       -2.0521990594
 O         -2.7707346250        1.0849034698        2.1993672906
 C         -2.9244882019       -1.3351483133        0.7604244428
 C         -1.8433486106       -2.3314042483        0.4170235388
 C         -2.0724884592       -3.6292105146       -0.0149359367
 C         -1.0061415003       -4.4622204248       -0.3161490361
 C          0.2980901459       -4.0158779841       -0.2241197129
 C          0.5370917217       -2.7107730040        0.1985238345
 C         -0.5270353105       -1.9035692905        0.5524046867
 H         -0.3309415489       -0.9032106905        0.9126065306
 N          1.8452543378       -2.1915151694        0.2192197453
 S          2.1247726149       -0.5619874488        0.4864920522
 O          1.9108907654       -0.2113721513        1.8764564269
 O          1.3932180771        0.1983534519       -0.4933441670
 C          3.8690121919       -0.5023015911        0.1240156916
 C          4.2658819713       -0.4724892424       -1.1992635485
 C          5.6199446794       -0.4591392392       -1.4934698505
 C          6.5503451431       -0.4769652961       -0.4647857915
 C          6.1376238273       -0.5037297184        0.8586381152
 C          4.7843859128       -0.5175258091        1.1588859467
 H          4.4159189706       -0.5286471704        2.1720394090
 H          6.8628446222       -0.5135717921        1.6562668136
 H          7.6035879598       -0.4668725273       -0.6966424162
 H          5.9437826526       -0.4347450525       -2.5214644781
 H          3.5056964553       -0.4516945628       -1.9632165491
 H          2.5501568479       -2.8006818032        0.6053875888
 H          1.1244037875       -4.6569999532       -0.4873419377
 H         -1.1983075890       -5.4717046161       -0.6469622021
 H         -3.0823411722       -3.9865168058       -0.1333275822
 H         -2.8599910998       -1.1360808853        1.8449397454
 C         -4.3355456818       -1.8389555432        0.5014600370
 C         -5.4220873241       -0.9056191663        0.0600848399
 C         -4.9081498327       -1.9538018124       -0.8783006189
 H         -5.5451929667       -2.7981412668       -1.0980218900
 H         -4.2826959243       -1.6463513010       -1.7009380714
 H         -6.4072755529       -1.0275242693        0.4849471393
 H         -5.1494459643        0.1233385520       -0.1267202005
 H         -4.6281788959       -2.6054852782        1.2127992012
