  62
        -98.94301598
 C         -2.3361417599       -0.8948276314        0.4350628244
 C         -2.5286129320        0.1658975083       -0.4830964345
 C         -3.5299425497        1.1707097386       -0.0996752401
 C         -4.1678393775        1.0749844696        1.0800927411
 C         -5.1903101896        2.0377013409        1.6194635660
 C         -6.6157247348        1.7838396468        1.1098993139
 C         -6.8620568773        2.1625372142       -0.3510737303
 H         -7.9418981899        2.1380011207       -0.5104693158
 H         -6.5315102296        3.1877903193       -0.5204843992
 C         -6.1924044318        1.2288511681       -1.3690720621
 H         -5.9119302015        0.2944155463       -0.8774953889
 H         -6.9070196400        0.9742213287       -2.1550459667
 C         -4.9583463023        1.8173159509       -2.0530358870
 H         -5.2501854683        2.6784864198       -2.6583682279
 H         -4.5441502094        1.0597998073       -2.7234422116
 C         -3.8486988030        2.2528923865       -1.0872078912
 H         -2.9453067924        2.4504806868       -1.6694944201
 H         -4.1378272594        3.1674032401       -0.5699866498
 H         -6.8569000580        0.7287289109        1.2582637842
 H         -7.2937250291        2.3705204588        1.7339571529
 H         -5.1866623262        1.9177704759        2.7049525856
 H         -4.8939564964        3.0596816319        1.3816539867
 O         -3.9294287856        0.0620864407        1.9537626721
 C         -3.0383981472       -0.9496282134        1.6448544659
 O         -2.9551944063       -1.8360709890        2.5181396630
 H          0.1386907569       -0.1604313317       -1.0065912413
 C          0.6864532845       -0.6841187340       -0.2369273696
 C          0.0496599243       -1.6796870871        0.4899313491
 C          0.7662520996       -2.3398529976        1.4811803761
 C          2.0851086349       -2.0073435308        1.7363047662
 C          2.7140815474       -1.0093032623        1.0136945300
 C          2.0064929363       -0.3428749844        0.0219086919
 N          2.6236018784        0.6911581644       -0.7024658887
 S          4.1361042858        0.4124153597       -1.3712890998
 O          4.2436295779        1.3446815565       -2.4721894890
 O          4.3275260998       -0.9834801476       -1.6909621747
 C          5.2666860216        0.9037157003       -0.0861133164
 C          6.2473767232        0.0301459757        0.3411051470
 C          7.1231205785        0.4396691306        1.3347167991
 C          7.0039960204        1.7090537550        1.8792834473
 C          6.0150160050        2.5754134314        1.4373369280
 C          5.1370992872        2.1724894127        0.4439056272
 H          4.3570963286        2.8153920709        0.0711054791
 H          5.9251293947        3.5616480598        1.8636154739
 H          7.6857349698        2.0255288746        2.6528650787
 H          7.8927282710       -0.2320608969        1.6796550127
 H          6.2982033324       -0.9491356097       -0.1076465210
 H          2.0086887598        1.1318917916       -1.3716524310
 H          3.7406219795       -0.7454532708        1.2093239057
 H          2.6293779373       -2.5290428613        2.5086709272
 H          0.2783823200       -3.1111625513        2.0593544398
 C         -1.3827778429       -2.0552642183        0.1918274993
 H         -1.6784271737       -2.8325789031        0.9090684092
 C         -1.5020747845       -2.6291908336       -1.2077855907
 C         -1.0572543096       -4.0374116522       -1.4566295817
 C         -2.5167438019       -3.6965959106       -1.4795463027
 H         -3.0323999294       -3.6879748285       -2.4281502117
 H         -3.1298539392       -4.0250061247       -0.6526102695
 H         -0.5655837477       -4.2642951508       -2.3902895612
 H         -0.6816703043       -4.5996141830       -0.6150607348
 H         -1.3269747432       -1.9009316465       -1.9887483069
 O         -1.9091898643        0.2975351523       -1.5738868783
