  62
        -98.94847648
 C         -0.8365965468       -1.2176344095        0.5679532232
 C         -1.2076622859       -0.5308658267       -0.6127850407
 C         -2.1481161904        0.5814709947       -0.4261618113
 C         -2.4810257358        0.9718976802        0.8169107723
 C         -3.4241413147        2.0898164773        1.1706328143
 C         -4.8992628106        1.6648816165        1.1902106400
 C         -5.5189419164        1.4188909948       -0.1862431971
 H         -6.5983360970        1.3416300701       -0.0412145554
 H         -5.3376667467        2.2841380852       -0.8244379060
 C         -5.0231275586        0.1461221039       -0.8871505563
 H         -5.8768855108       -0.3988498031       -1.2963249265
 H         -4.5469264930       -0.5108697114       -0.1554947102
 C         -4.0491649564        0.3930181928       -2.0397813689
 H         -3.7399178352       -0.5768108256       -2.4373072051
 H         -4.5588729356        0.9370734511       -2.8377948548
 C         -2.7850937801        1.1709956818       -1.6475898119
 H         -2.0650346284        1.0919015895       -2.4646710296
 H         -3.0276635659        2.2202701126       -1.4866674612
 H         -5.4625906435        2.4610481489        1.6825363148
 H         -4.9956833328        0.7641709856        1.8010832058
 H         -3.1482004886        2.4280287414        2.1718616599
 H         -3.2986860878        2.9182997908        0.4735377908
 O         -1.9733978993        0.3797268421        1.9327782086
 C         -1.1984639743       -0.7655370458        1.8359331833
 O         -0.8931292188       -1.2756837407        2.9344046085
 H          1.7042458096       -0.5794569492        1.0979697873
 C          2.0739508394       -1.1823822069        0.2804477848
 C          1.3036879371       -2.2374216267       -0.1935873650
 C          1.8055624462       -3.0168805129       -1.2277674139
 C          3.0438141380       -2.7353187001       -1.7780620705
 C          3.8046602512       -1.6805276650       -1.3099232654
 C          3.3153318057       -0.9015969577       -0.2665330390
 N          4.0756513209        0.1576824145        0.2487311924
 S          3.3505975320        1.4954790468        0.9174583378
 O          4.3890109183        2.5056974090        0.8935512618
 O          2.8163695386        1.1882450171        2.2212282214
 C          2.0422983705        2.0001010046       -0.1849411087
 C          0.9032744493        2.5504593629        0.3648759616
 C         -0.0697697132        3.0631982858       -0.4767590497
 C          0.1058845876        3.0058675393       -1.8498465722
 C          1.2458971790        2.4314744842       -2.3880603053
 C          2.2300436904        1.9325024321       -1.5508465898
 H          3.1308754841        1.4954627496       -1.9492544946
 H          1.3739794018        2.3753698579       -3.4569441665
 H         -0.6504954349        3.4102812412       -2.5033222764
 H         -0.9555795129        3.5083912491       -0.0541234660
 H          0.7987599385        2.5630213861        1.4389564164
 H          4.9161598443        0.3849239400       -0.2610512747
 H          4.7709747030       -1.4624532621       -1.7379864319
 H          3.4205865623       -3.3451181610       -2.5848865357
 H          1.2273489108       -3.8435432739       -1.6055180842
 C         -0.0236437371       -2.4955537984        0.4744220518
 H          0.1791461288       -2.8021613636        1.5116033718
 C         -0.8461051018       -3.5735236271       -0.2024441592
 C         -0.6240736637       -5.0170332646        0.1313872929
 C         -1.8630901132       -4.3200192278        0.6054344931
 H         -2.8068652148       -4.5705062965        0.1445602728
 H         -1.9429399772       -4.0701274772        1.6538976351
 H         -0.7206097361       -5.7503011726       -0.6550021391
 H          0.1357029640       -5.2499682863        0.8621228279
 H         -1.1104980324       -3.3167189042       -1.2217727790
 O         -0.7986265696       -0.8416068461       -1.7601398437
