  62
        -98.93821688
 C         -1.7669509381       -0.1730066300       -0.8904651619
 C         -2.9323760291        0.6286847013       -0.9808180770
 C         -4.2038052490       -0.0564231670       -0.6875513104
 C         -4.2000302771       -1.3611223339       -0.3637960206
 C         -5.4145939102       -2.1587907588        0.0116986423
 C         -5.6527169348       -2.1292147313        1.5278949432
 C         -5.6096223902       -0.7257579725        2.1322956576
 H         -5.8206340380       -0.8244477539        3.1993567366
 H         -4.5955947048       -0.3295790645        2.0410618293
 C         -6.5992836269        0.2660386364        1.5050621554
 H         -7.3738331039       -0.2766409530        0.9618986105
 H         -7.0934579946        0.8212264804        2.3052196604
 C         -5.9589306686        1.2989603504        0.5759074786
 H         -6.7014648869        2.0733325626        0.3651907035
 H         -5.1209377699        1.7806593890        1.0860923105
 C         -5.4598279060        0.7649196432       -0.7726671321
 H         -6.2564668401        0.2016441030       -1.2628425178
 H         -5.2118998191        1.6268951107       -1.3991306124
 H         -4.8815667689       -2.7334774637        2.0112121819
 H         -6.6220910421       -2.5866825627        1.7340716977
 H         -6.2814171637       -1.7587896320       -0.5107719637
 H         -5.2572967881       -3.1920529605       -0.3022545882
 O         -3.0632547139       -2.1001926649       -0.2958808419
 C         -1.8293908607       -1.5267994305       -0.5472345936
 O         -0.8695066261       -2.3172968989       -0.4450765623
 H          2.1124782142       -0.0469379234       -0.2120250429
 C          1.5640053469        0.6526718266        0.3992738725
 C          0.2510482049        0.9610955997        0.0762392685
 C         -0.4504901403        1.8406009040        0.8941478219
 C          0.1575533110        2.3980301505        2.0042950200
 C          1.4780271088        2.1123399120        2.3044086501
 C          2.1883723326        1.2365449035        1.4923982477
 N          3.5275193739        0.9232289126        1.7605581031
 S          4.6083569062        0.7684142285        0.4891515194
 O          5.9017347731        1.0421669204        1.0771945173
 O          4.2266838377        1.5964253864       -0.6299803306
 C          4.5273904620       -0.9535909685        0.0480069484
 C          4.7692037402       -1.8906940811        1.0329013557
 C          4.7209950960       -3.2352996978        0.7032615622
 C          4.4343879379       -3.6180478460       -0.5985191670
 C          4.1979606891       -2.6649947731       -1.5768628739
 C          4.2453084860       -1.3181721157       -1.2532987039
 H          4.0627079487       -0.5455167472       -1.9841555541
 H          3.9731109892       -2.9640931433       -2.5881556779
 H          4.3937912227       -4.6653316807       -0.8532786569
 H          4.9039375590       -3.9806554109        1.4604472008
 H          4.9922523888       -1.5540287900        2.0315653757
 H          3.9322238358        1.4141431364        2.5443273944
 H          1.9558298466        2.5632033862        3.1610249280
 H         -0.3978570222        3.0766859648        2.6342806050
 H         -1.4696325191        2.0930417487        0.6442743967
 C         -0.3677000276        0.3553324543       -1.1569425876
 H          0.2290052007       -0.5343925642       -1.4151428016
 C         -0.2984957776        1.2969473081       -2.3525622428
 C         -0.1104868115        2.7761322498       -2.2360590858
 C          1.0071611674        1.9216732096       -2.7496599960
 H          1.2544984859        1.9717832260       -3.7997031961
 H          1.8619520160        1.7744532882       -2.1043305041
 H         -0.6504216051        3.4052686514       -2.9271408436
 H         -0.0134756196        3.2019683819       -1.2498828657
 H         -0.9381394692        0.9602394250       -3.1627381140
 O         -2.9370673664        1.8484802612       -1.2844106799
