  62
        -98.93582671
 C         -2.3561410917       -1.1060103223        0.1325387485
 C         -3.6068194210       -1.0076484507        0.7943570653
 C         -4.6029391485       -0.0928835745        0.2109389570
 C         -4.2726499686        0.6136298213       -0.8834049944
 C         -5.1073696769        1.6372714810       -1.6022631507
 C         -4.8037704184        3.0516087929       -1.0793033697
 C         -5.6274206337        3.4807805907        0.1343678135
 H         -6.6606696556        3.6505339597       -0.1756501650
 H         -5.2263643128        4.4376763395        0.4762659545
 C         -5.6238161544        2.4982661141        1.3083391516
 H         -5.9082253030        3.0494702960        2.2067367317
 H         -4.6120191985        2.1208148669        1.4680534179
 C         -6.5960094246        1.3247843650        1.1164014967
 H         -7.2571670864        1.5430051884        0.2780105396
 H         -7.2336816682        1.2356163651        1.9983318229
 C         -5.9343210312       -0.0452303340        0.9100989736
 H         -6.6311032114       -0.7011904804        0.3773329365
 H         -5.7512470432       -0.5105598379        1.8837696055
 H         -4.9865256768        3.7684653016       -1.8825151293
 H         -3.7383829723        3.0978587789       -0.8379208973
 H         -6.1643550427        1.4036497593       -1.5152738003
 H         -4.8210131091        1.5875728502       -2.6549872611
 O         -3.0504614208        0.5150171367       -1.4724161647
 C         -2.0627972921       -0.3337324909       -0.9927697219
 O         -1.0109908842       -0.2971050903       -1.6588528732
 O         -3.8801437059       -1.6572926457        1.8389457239
 C         -1.3245017003       -2.0406747349        0.7418229214
 C         -0.0202215196       -1.3110002381        0.9317136531
 C          0.1320366441       -0.4543432783        2.0178779229
 C          1.3002019490        0.2636148430        2.1911293344
 C          2.3354436929        0.1515648128        1.2792615249
 C          2.1835618832       -0.6827667838        0.1804710093
 C          1.0197545475       -1.4244591077        0.0236842590
 H          0.9068158165       -2.0617397693       -0.8394829882
 N          3.2211895522       -0.7965835599       -0.7587223316
 S          4.0365759990        0.5844660548       -1.2500589507
 O          3.2129939360        1.7682028534       -1.1704733255
 O          4.5733169442        0.2580001568       -2.5536873164
 C          5.3858786327        0.7012959711       -0.0908071370
 C          5.6130130691        1.8835544666        0.5859368241
 C          6.6755945923        1.9557000597        1.4734715130
 C          7.4893706758        0.8501644680        1.6666846694
 C          7.2501323276       -0.3292151048        0.9771356133
 C          6.1903459956       -0.4071955705        0.0879408410
 H          5.9729768598       -1.3029976098       -0.4691741414
 H          7.8851876612       -1.1869226704        1.1298539372
 H          8.3147341918        0.9082418041        2.3585646828
 H          6.8630535315        2.8723686245        2.0093165635
 H          4.9511615901        2.7163341714        0.4072544960
 H          2.9792567673       -1.3689700759       -1.5548609170
 H          3.2428802610        0.7203332559        1.3992786445
 H          1.4066085338        0.9207082359        3.0409611940
 H         -0.6832648426       -0.3511885513        2.7207703685
 H         -1.7310798856       -2.2767287335        1.7383742961
 C         -1.1613231342       -3.3695484702        0.0190050659
 C         -2.3568457981       -4.0827934377       -0.5362675958
 C         -1.3173005647       -3.5298258777       -1.4623033929
 H         -0.6636015924       -4.2248729777       -1.9696530996
 H         -1.5570995671       -2.6553819526       -2.0466641962
 H         -2.4239472074       -5.1532578187       -0.4145056330
 H         -3.3081651469       -3.5741991815       -0.4774582820
 H         -0.4068002402       -3.9898920064        0.4936261763
