  62
        -98.93699335
 C         -2.5074850613       -1.4541682994        0.1338081826
 C         -2.5266537223       -0.3760267990       -0.7829050422
 C         -3.6337321823        0.5828944410       -0.6283650882
 C         -4.5439891210        0.3885277342        0.3428165189
 C         -5.6794854468        1.3142221192        0.6751116276
 C         -5.1542951967        2.5257323184        1.4716449150
 C         -5.2813426612        3.8630039207        0.7417191386
 H         -6.3235755111        4.1873728693        0.7732066142
 H         -4.6908671909        4.5953819380        1.2963271893
 C         -4.8336648897        3.8690807505       -0.7231472895
 H         -5.6203351906        3.4459471168       -1.3495996902
 H         -4.7288153594        4.9149966028       -1.0192294144
 C         -3.5189464107        3.1387367662       -1.0272509407
 H         -2.8884933478        3.0898532318       -0.1387169179
 H         -2.9699281643        3.7213931360       -1.7702092253
 C         -3.6917351895        1.7224990977       -1.6077818743
 H         -4.6260201891        1.6714645626       -2.1739707564
 H         -2.8723336478        1.5318421455       -2.3074227600
 H         -5.6924554890        2.6004583259        2.4177136336
 H         -4.1062761003        2.3442776000        1.7199997679
 H         -6.1686923420        1.6401018286       -0.2399936436
 H         -6.3948437129        0.7485652992        1.2722979645
 O         -4.4889904812       -0.6585501336        1.2060685112
 C         -3.4725250083       -1.5942774888        1.1332883475
 O         -3.5377053855       -2.4917576384        1.9964827052
 O         -1.6729786492       -0.2172733949       -1.6959775339
 C         -1.4052372561       -2.5014477753        0.0934166593
 C         -0.1046106588       -1.8309549186        0.4625208893
 C          0.1432411602       -1.5371643742        1.8010933469
 C          1.2949776187       -0.8722809968        2.1754889618
 C          2.2204263824       -0.4779761383        1.2238173737
 C          1.9732787406       -0.7495914905       -0.1142573501
 C          0.8237671398       -1.4364643788       -0.4864718063
 H          0.6406411563       -1.6318221148       -1.5309000411
 N          2.9020130397       -0.3542668398       -1.0899442194
 S          3.6027665940        1.1651974189       -0.9867704555
 O          2.7346444818        2.1223156014       -0.3409992004
 O          4.0164929074        1.4797473236       -2.3371033441
 C          5.0547426636        0.8876439778        0.0083800616
 C          5.3208141746        1.7142738167        1.0822720569
 C          6.4633771556        1.4902285799        1.8348162865
 C          7.3161264351        0.4494158107        1.5011023110
 C          7.0363690442       -0.3702156049        0.4177405341
 C          5.8967429074       -0.1506511434       -0.3392423419
 H          5.6452033878       -0.7636907343       -1.1883872523
 H          7.7017926171       -1.1788145106        0.1615134806
 H          8.2037460820        0.2760206550        2.0888141919
 H          6.6822269463        2.1270156657        2.6769337229
 H          4.6256818120        2.5072686942        1.3087037114
 H          2.6042522213       -0.5507671162       -2.0346945729
 H          3.1147955404        0.0519805915        1.5078982289
 H          1.4755139675       -0.6551373913        3.2174210215
 H         -0.5891653207       -1.8290848140        2.5414888748
 H         -1.6503977537       -3.2241515803        0.8830540916
 C         -1.3731016370       -3.2267626244       -1.2352670498
 C         -0.6257394656       -4.5205930496       -1.3474672199
 C         -2.1238162784       -4.5147472238       -1.3808082966
 H         -2.6210169790       -4.7171503888       -2.3176704658
 H         -2.6577957278       -4.8813044173       -0.5162442369
 H         -0.0926820989       -4.7320087896       -2.2618314975
 H         -0.1404231294       -4.8925692064       -0.4579471486
 H         -1.3694889471       -2.5599493446       -2.0886871951
