  62
        -98.93977110
 C         -2.2126333946       -0.7922614417        0.1376962747
 C         -2.4357319965        0.3535958232        0.9376745387
 C         -3.1157682371        1.4766716403        0.2794909346
 C         -3.4393430885        1.3755152615       -1.0229189309
 C         -4.1788443994        2.4208321205       -1.8056171309
 C         -5.6946444648        2.1834718690       -1.7536403595
 C         -6.2365499166        1.9575322008       -0.3421593175
 H         -7.3184356309        1.8335256709       -0.4252279499
 H         -5.8350081938        1.0194523048        0.0479212239
 C         -5.9260471102        3.0906177112        0.6458521579
 H         -6.8305155889        3.3171073848        1.2142894465
 H         -5.6523561818        3.9940094251        0.0996777504
 C         -4.8317673275        2.7623721594        1.6632339776
 H         -4.8454152324        3.5336495692        2.4379723956
 H         -5.0564614256        1.8086899727        2.1475463250
 C         -3.4029366603        2.6968211024        1.1090156133
 H         -3.1849911377        3.6064274029        0.5456799077
 H         -2.7185424541        2.6473900753        1.9611192488
 H         -6.1940356063        3.0432294140       -2.2039844341
 H         -5.9275383917        1.3016467844       -2.3549411284
 H         -3.8475703548        2.3705661250       -2.8441411609
 H         -3.9408296558        3.4043530209       -1.4052235367
 O         -3.1651448927        0.2773028209       -1.7717696567
 C         -2.5518967232       -0.8358329370       -1.2150826969
 O         -2.3679310899       -1.7721841595       -2.0142116448
 O         -2.0760213048        0.4358487254        2.1441780804
 C         -1.5299790095       -1.9972276837        0.7605866558
 C         -0.1894127026       -2.2168715898        0.1022107648
 C          0.1984763931       -3.4164395961       -0.4773434262
 C          1.4452027922       -3.5357078819       -1.0684293290
 C          2.3278726625       -2.4724587278       -1.0920190543
 C          1.9549636895       -1.2701821255       -0.5031431397
 C          0.7080528457       -1.1550380765        0.0917849179
 H          0.4152600205       -0.2195921727        0.5532476141
 N          2.8365477989       -0.1696438081       -0.5301541777
 S          4.4345931722       -0.4611468386       -0.0603515178
 O          5.1195856807       -1.1131656470       -1.1475819541
 O          4.4619559535       -1.1550661552        1.2085866069
 C          5.0443103613        1.2022382662        0.1245762948
 C          5.1033315069        1.7688011915        1.3834497353
 C          5.5593299035        3.0715695061        1.5109746098
 C          5.9423860535        3.7821818708        0.3834710736
 C          5.8773097081        3.1994488717       -0.8736313742
 C          5.4242297411        1.8968771879       -1.0080883719
 H          5.3654526277        1.4001320017       -1.9623433334
 H          6.1784119965        3.7546659070       -1.7472753053
 H          6.2968901327        4.7956652694        0.4858170746
 H          5.6139524269        3.5258760661        2.4871976596
 H          4.8027713731        1.1767132937        2.2331459335
 H          2.4629446055        0.6139388633       -0.0106471479
 H          3.3010546657       -2.5588256515       -1.5471108140
 H          1.7332261352       -4.4726641124       -1.5211399346
 H         -0.4748281454       -4.2575039518       -0.4737924516
 H         -1.3470772904       -1.7180380399        1.8091002881
 C         -2.4366728675       -3.2083683426        0.7317983258
 C         -2.2548698017       -4.3041541737        1.7378522839
 C         -3.4383321319       -3.3899384197        1.8312415697
 H         -4.4136754377       -3.7794178534        1.5808987208
 H         -3.4529405075       -2.6496942772        2.6180242880
 H         -2.4191368832       -5.3242355497        1.4253484225
 H         -1.4648950130       -4.1880684312        2.4645105082
 H         -2.7427815314       -3.4786733813       -0.2722700415
