  62
        -98.94556880
 C         -2.1868521302       -0.8260443488       -0.4228779096
 C         -1.5090780500        0.2401265510       -1.0620376198
 C         -2.0461424192        1.5852667512       -0.8158148592
 C         -3.1069655487        1.7507338616       -0.0066287087
 C         -3.8065638179        3.0488410519        0.2942431719
 C         -3.1529121369        3.8803920414        1.4054025717
 C         -1.8405174068        4.5614217108        1.0171095812
 H         -1.9805699169        5.1179724510        0.0897184914
 H         -1.6096896560        5.2854534305        1.8010796812
 C         -0.6525387373        3.6015708502        0.8692896304
 H          0.2215451331        4.0156241897        1.3781875801
 H         -0.8730295176        2.6517444202        1.3625959104
 C         -0.2341906482        3.3107837602       -0.5711709498
 H          0.1521834021        4.2218070601       -1.0348170898
 H          0.5767805215        2.5799734298       -0.5284476603
 C         -1.3512797589        2.7480364410       -1.4594847794
 H         -2.0702373986        3.5327595714       -1.6962567889
 H         -0.9018200595        2.3924085909       -2.3899704797
 H         -2.9846204768        3.2370503411        2.2723181315
 H         -3.8678348264        4.6533389317        1.6974194822
 H         -3.8719743780        3.6462551021       -0.6159015380
 H         -4.8183506679        2.7863938123        0.6114097123
 O         -3.7096806289        0.7067646418        0.6225344514
 C         -3.2608930397       -0.5889922284        0.4405754609
 O         -3.9063228198       -1.4439296482        1.0824466411
 H          0.6277246897       -1.1365764802       -0.2928857910
 C          0.4880352696       -1.9466892303        0.4009996089
 C         -0.7011709507       -2.6612277697        0.3876957193
 C         -0.8617391508       -3.7106943998        1.2841968892
 C          0.1424390094       -4.0258428204        2.1823829787
 C          1.3072969898       -3.2818119410        2.2221613883
 C          1.4767448899       -2.2270353210        1.3311170284
 N          2.6416575204       -1.4448252616        1.3592511880
 S          2.5566400612        0.2383260985        1.3004300283
 O          3.4126668519        0.6932120579        2.3801702480
 O          1.1910378714        0.6945298992        1.3384906090
 C          3.3587725706        0.6367673484       -0.2412389120
 C          2.6416609101        0.7081237989       -1.4181496417
 C          3.3163551497        1.0019939488       -2.5941592519
 C          4.6855387498        1.2141817381       -2.5780941625
 C          5.3923901403        1.1379148576       -1.3873942329
 C          4.7252029808        0.8462576477       -0.2096207326
 H          5.2316467612        0.7907902872        0.7398654271
 H          6.4573658404        1.3053028770       -1.3737008634
 H          5.2022827895        1.4422537780       -3.4970616728
 H          2.7598657793        1.0610069793       -3.5159928817
 H          1.5748099300        0.5440653295       -1.4208185912
 H          3.3022489605       -1.7265548520        2.0696032776
 H          2.0797173901       -3.5086143016        2.9420125478
 H          0.0086424294       -4.8451703405        2.8725943386
 H         -1.7872473811       -4.2678355393        1.2871893796
 C         -1.8023925410       -2.2905893090       -0.5773907701
 H         -2.6973461112       -2.8615903486       -0.2930048797
 C         -1.4243556219       -2.6730106589       -1.9953089503
 C         -1.5781077528       -4.0986213587       -2.4284893505
 C         -2.5024128325       -3.0478111182       -2.9651542899
 H         -2.3978932029       -2.7405000480       -3.9946752699
 H         -3.5221734224       -3.0339855677       -2.6077507194
 H         -0.8361222433       -4.5174059590       -3.0906143509
 H         -1.9739265228       -4.8012229487       -1.7107972604
 H         -0.5807579718       -2.1164149793       -2.3802577306
 O         -0.5170087004        0.1034224206       -1.8266359103
