  62
        -98.94466814
 C          1.9875617732        0.7669288442        0.5658145327
 C          1.9894135710        0.0772199108       -0.6703224858
 C          2.0960864933       -1.3832603205       -0.5839805335
 C          2.1144276070       -1.9823301155        0.6200226837
 C          2.1699589055       -3.4653334823        0.8706313052
 C          3.5855821745       -4.0576150758        0.8279987632
 C          4.2082887921       -4.1561640491       -0.5651302070
 H          5.0984275614       -4.7816470785       -0.4741401594
 H          3.5162081847       -4.6679409760       -1.2343892863
 C          4.6128313275       -2.8065165377       -1.1741070111
 H          4.6555380544       -2.0502414367       -0.3870284915
 H          5.6158112875       -2.8846131087       -1.5993861679
 C          3.6868166607       -2.3100614090       -2.2845455964
 H          4.0441046871       -1.3325827104       -2.6178193863
 H          3.7332591554       -2.9943155065       -3.1345261452
 C          2.2197291740       -2.1572478073       -1.8612026047
 H          1.7502976967       -3.1355831684       -1.7587094834
 H          1.6897894690       -1.5972400234       -2.6356936349
 H          4.2318493377       -3.4606766957        1.4755086840
 H          3.5291739671       -5.0636243852        1.2500758774
 H          1.7572470722       -3.6250252838        1.8693641259
 H          1.5338449769       -3.9785289096        0.1485747202
 O          2.0638988236       -1.2853084561        1.7879318573
 C          2.0084662064        0.0990654318        1.7884131030
 O          1.9847229183        0.6126716446        2.9274904501
 O          1.9100052369        0.6506505494       -1.7885414220
 C          1.8554023974        2.2792864549        0.5834702560
 C          0.5668485541        2.6674800863       -0.1020227569
 C          0.4655669405        3.7007203815       -1.0240680096
 C         -0.7442735866        3.9688333473       -1.6416166412
 C         -1.8671905397        3.2121977702       -1.3637414978
 C         -1.7804508761        2.1896913450       -0.4245707075
 C         -0.5757266624        1.9411441496        0.2097679696
 H         -0.5190427464        1.1430330106        0.9371652905
 N         -2.9067904497        1.4157705875       -0.0928962266
 S         -2.6714866015       -0.1986562085        0.3425894928
 O         -2.3186052561       -0.2557980088        1.7402081056
 O         -1.7659368829       -0.8478502320       -0.5785127263
 C         -4.3292918215       -0.8202612730        0.1226370081
 C         -5.2571873488       -0.6026547549        1.1237207770
 C         -6.5559044925       -1.0510462540        0.9425775994
 C         -6.9037793014       -1.7049351457       -0.2302252666
 C         -5.9614388949       -1.9180190969       -1.2250581850
 C         -4.6609059880       -1.4708534829       -1.0507555976
 H         -3.8919085659       -1.6200350113       -1.7918515363
 H         -6.2333731672       -2.4300124639       -2.1339773178
 H         -7.9149568785       -2.0535328044       -0.3684242846
 H         -7.2901083470       -0.8894962018        1.7151917746
 H         -4.9365236671       -0.0981952660        2.0202808852
 H         -3.6584355357        1.5120666147       -0.7624190201
 H         -2.8026937057        3.4073771152       -1.8654287941
 H         -0.8084245481        4.7687802397       -2.3635768008
 H          1.3362060368        4.2861060458       -1.2704338700
 H          1.7819954471        2.5677816011        1.6429100359
 C          3.0833606532        2.9281560936       -0.0202154985
 C          3.5260998110        4.2843149306        0.4380436989
 C          4.3138041052        3.0691473022        0.8227837727
 H          5.2763191390        2.9076178806        0.3612510495
 H          4.2550488553        2.7201414203        1.8438007529
 H          3.9530841111        4.9597766316       -0.2877609236
 H          2.9394652861        4.7691850325        1.2036379537
 H          3.2181268120        2.6671612683       -1.0635537232
