  62
        -98.94651795
 C         -1.1845898618       -1.1281424756        0.5564759278
 C         -1.6856814039       -0.6714461269       -0.6868252122
 C         -2.4823659967        0.5644264568       -0.6357671732
 C         -2.5934787942        1.2326099777        0.5259104007
 C         -3.4235624725        2.4657970950        0.7320497272
 C         -4.8431668540        2.1036511743        1.1913340013
 C         -5.5140288157        1.0313720023        0.3325018990
 H         -4.9786462628        0.0873892076        0.4575534674
 H         -6.5217133230        0.8827541589        0.7266158554
 C         -5.5950914414        1.3731313769       -1.1620529044
 H         -6.5969887667        1.1300575612       -1.5222559067
 H         -5.4520694884        2.4446517133       -1.3060224425
 C         -4.6075329944        0.6057435127       -2.0434171248
 H         -4.8963282048        0.7564094911       -3.0870411637
 H         -4.6864731055       -0.4640160309       -1.8339249315
 C         -3.1350879496        1.0161386011       -1.9118316258
 H         -2.5828599262        0.5278500668       -2.7201442262
 H         -3.0442247252        2.0969144039       -2.0360789306
 H         -4.7929411717        1.7369019034        2.2191707971
 H         -5.4505823958        3.0105599260        1.1841408214
 H         -2.9486027821        3.0779551224        1.5002515377
 H         -3.4706756008        3.0307625322       -0.1968672509
 O         -1.9890905901        0.8275332271        1.6718332010
 C         -1.2930095564       -0.3658658296        1.7208502115
 O         -0.8117403001       -0.6341033739        2.8418314957
 H          1.5186320408       -0.9572004035        1.6358871704
 C          1.8263971536       -1.4172258760        0.7050133576
 C          0.9371870584       -2.2594221885        0.0463902682
 C          1.3335703477       -2.8373609346       -1.1513341068
 C          2.5893480401       -2.5730290081       -1.6738628157
 C          3.4729033890       -1.7375942733       -1.0148914960
 C          3.0830373496       -1.1555051458        0.1850347073
 N          3.9727167776       -0.2838918473        0.8566143078
 S          4.2444004890        1.1814411301        0.0925879498
 O          4.8889205425        0.9304868715       -1.1703288274
 O          4.9783771350        1.9889946602        1.0392952770
 C          2.6225467368        1.8747867181       -0.1739564421
 C          1.8695177999        1.4298860148       -1.2425689726
 C          0.5915558961        1.9352578667       -1.4160196841
 C          0.0936827587        2.8739858149       -0.5259247129
 C          0.8591423261        3.3054413316        0.5458447530
 C          2.1342975237        2.7964124296        0.7301254799
 H          2.7648078187        3.1066862772        1.5481206705
 H          0.4651186934        4.0323652963        1.2378938140
 H         -0.8983779006        3.2706715504       -0.6692552284
 H         -0.0133946977        1.5867147111       -2.2377098512
 H          2.2893617159        0.7065437950       -1.9224355745
 H          3.6919603678       -0.1021062171        1.8108762191
 H          4.4463843487       -1.5091548679       -1.4172115985
 H          2.8837420331       -3.0253287973       -2.6087325145
 H          0.6552880791       -3.4829378744       -1.6837773684
 C         -0.4272683362       -2.4435578749        0.6634995961
 H         -0.2823479282       -2.6175767263        1.7390234896
 C         -1.2169284107       -3.5984516644        0.0877868560
 C         -0.8498693918       -5.0002222674        0.4685108574
 C         -2.1148013552       -4.3886997639        0.9896257599
 H         -3.0577798300       -4.7404765406        0.5986947953
 H         -2.1543429314       -4.1049452708        2.0315399113
 H         -0.9243324611       -5.7752475203       -0.2788556066
 H         -0.0288836098       -5.1311364999        1.1573462218
 H         -1.5633846641       -3.4189902908       -0.9220294189
 O         -1.4959822508       -1.2601590903       -1.7815127082
