  62
        -98.93920894
 C         -2.1332515107       -1.0210689832        0.0670370559
 C         -2.8924864169       -0.3531151479        1.0526937249
 C         -3.6502840624        0.8377313219        0.6212309689
 C         -3.5464549192        1.2399031658       -0.6593898517
 C         -4.2448215625        2.3922316502       -1.3309045378
 C         -5.7193122999        2.0885439317       -1.6441639211
 C         -6.4855800277        1.3926497659       -0.5221162998
 H         -5.9797176873        0.4592434976       -0.2686543884
 H         -7.4740714313        1.1310606727       -0.9085967008
 C         -6.6844124668        2.2232160867        0.7434749947
 H         -7.3110635981        1.6375721313        1.4208702700
 H         -7.2302830898        3.1350295160        0.4911167016
 C         -5.4101766668        2.6141182182        1.4946464136
 H         -5.7132736002        2.9854100769        2.4780659019
 H         -4.8997694037        3.4359221521        0.9994863358
 C         -4.4388913978        1.4648958534        1.7460839772
 H         -4.9757418544        0.6419372053        2.2315214263
 H         -3.6936211924        1.7942591805        2.4807376349
 H         -5.7491956659        1.4371731743       -2.5209691727
 H         -6.2164831048        3.0249708799       -1.9024262707
 H         -3.7185608833        2.5722052810       -2.2710916995
 H         -4.1525299752        3.2887656263       -0.7248658926
 O         -2.7744162444        0.5804210000       -1.5708475901
 C         -2.0546097245       -0.5545500214       -1.2446604042
 O         -1.4001746851       -1.0411558476       -2.1859750659
 O         -2.9405677616       -0.7318476006        2.2555016201
 C         -1.3401886276       -2.2559305267        0.4537573986
 C          0.1305798336       -2.0207640156        0.2103550125
 C          0.9557337375       -2.9281023343       -0.4403062493
 C          2.2935335512       -2.6363888946       -0.6453759644
 C          2.8384117798       -1.4453186503       -0.2031247562
 C          2.0233735125       -0.5326077348        0.4539667922
 C          0.6858415444       -0.8292337065        0.6611999199
 H          0.0515763285       -0.1134350539        1.1708965462
 N          2.5683557567        0.6778378513        0.9205849597
 S          3.4375954062        1.6175609244       -0.1688460079
 O          3.3327339685        2.9699268507        0.3362088449
 O          3.0006291311        1.4030481371       -1.5288176536
 C          5.1138309276        1.0523616641        0.0357428580
 C          5.6643235941        1.0925293925        1.3019363749
 C          6.9693291230        0.6612656965        1.4778540213
 C          7.6984666853        0.2025608507        0.3907117098
 C          7.1324928451        0.1717081317       -0.8745639242
 C          5.8268778348        0.6008113500       -1.0573416094
 H          5.3424279060        0.5895976864       -2.0208788575
 H          7.7004165101       -0.1852710686       -1.7185741882
 H          8.7140499278       -0.1326698239        0.5301811883
 H          7.4128450818        0.6842017748        2.4601747358
 H          5.0647390886        1.4597172859        2.1179405758
 H          1.9023198602        1.2502765039        1.4196501634
 H          3.8774091573       -1.2116214728       -0.3683932291
 H          2.9209972326       -3.3478566917       -1.1601252762
 H          0.5495782939       -3.8596187049       -0.7983336687
 H         -1.4932840964       -2.3741559808        1.5370865860
 C         -1.8862218154       -3.4788383996       -0.2523259481
 C         -1.7635354998       -4.8332452169        0.3776364680
 C         -3.0985889713       -4.1567291240        0.3098063037
 H         -3.8396895618       -4.5393233085       -0.3757901970
 H         -3.5151769640       -3.7507758666        1.2201790044
 H         -1.5897855187       -5.6852694094       -0.2620131039
 H         -1.2758697516       -4.8947590777        1.3385987027
 H         -1.8099472144       -3.4033510690       -1.3313641048
