  62
        -98.94496408
 C         -1.8858363727       -0.7260020937       -0.1551674117
 C         -2.4547816618       -0.0974093155        0.9775346422
 C         -3.5199728286        0.8767036909        0.7060048513
 C         -3.8560461678        1.1439080105       -0.5694772248
 C         -4.9562671181        2.0747104777       -0.9881192682
 C         -6.2870861832        1.3255800191       -1.1445071347
 C         -6.6382904341        0.4348523347        0.0472424211
 H         -5.9116832256       -0.3783390436        0.1105558772
 H         -7.6100238945       -0.0180472621       -0.1607869070
 C         -6.6943257294        1.1694550640        1.3940049307
 H         -7.5888558700        0.8478169755        1.9314697742
 H         -6.7860126840        2.2433307110        1.2269863923
 C         -5.5017709353        0.8997200924        2.3133581062
 H         -5.3501238096       -0.1783465851        2.4092383257
 H         -5.7444075677        1.2857427372        3.3070172665
 C         -4.1732891799        1.5373846762        1.8874446579
 H         -3.4706541832        1.4273693553        2.7188934640
 H         -4.3197724427        2.6035185999        1.7015896333
 H         -6.2273779906        0.6971626911       -2.0361312899
 H         -7.0798734432        2.0597678612       -1.2990027946
 H         -5.0577375073        2.8666759307       -0.2484638075
 H         -4.6842133376        2.5188576088       -1.9472035375
 O         -3.2536916560        0.5555571329       -1.6339611033
 C         -2.2606200551       -0.3982180035       -1.4585061842
 O         -1.8013171997       -0.8622225706       -2.5181820926
 H          0.3289826520        0.6203212920        0.3290276784
 C          0.9234448324       -0.0099788338       -0.3209500278
 C          0.4882785688       -1.3025961144       -0.5897479380
 C          1.2700159758       -2.1058189229       -1.4087401756
 C          2.4348716816       -1.6109589011       -1.9710088182
 C          2.8502897701       -0.3164982708       -1.7224033568
 C          2.0871672452        0.4884380764       -0.8848894955
 N          2.5082509124        1.7997196355       -0.6091971517
 S          4.1280140983        2.0564282692       -0.2786432719
 O          4.1599641241        3.2324974361        0.5624927298
 O          4.8675998005        2.1475770347       -1.5129415714
 C          4.6571442914        0.6177891154        0.6350112432
 C          4.0112187639        0.3243455195        1.8197399207
 C          4.3891619753       -0.8052099085        2.5269508567
 C          5.4018395772       -1.6179284776        2.0402586693
 C          6.0443408697       -1.3066497969        0.8522729721
 C          5.6688083070       -0.1791419644        0.1394911480
 H          6.1388268104        0.0982988261       -0.7898991544
 H          6.8327334855       -1.9389737391        0.4771385275
 H          5.6909126080       -2.4982612357        2.5922604199
 H          3.8894360412       -1.0482796518        3.4510138902
 H          3.2299799164        0.9776293109        2.1747941903
 H          1.9141735724        2.2973395834        0.0368797183
 H          3.7425090663        0.0890966743       -2.1709920315
 H          3.0251778404       -2.2420019472       -2.6174517359
 H          0.9622239994       -3.1166173293       -1.6185567302
 C         -0.7978068626       -1.7644353328        0.0504350444
 H         -0.6392495818       -1.8070966396        1.1384532133
 C         -1.2643384938       -3.1233700327       -0.4268098885
 C         -0.7268380588       -4.3715147494        0.2050429361
 C         -2.1375585265       -3.9438218427        0.4731775482
 H         -2.9441367209       -4.5106886807        0.0328241387
 H         -2.3736207480       -3.5331978079        1.4442461388
 H         -0.0046025833       -4.2585468738        0.9990841630
 H         -0.5660257443       -5.2373285217       -0.4192736382
 H         -1.4868583009       -3.1378976629       -1.4878003180
 O         -2.0832649414       -0.3345470065        2.1593976125
