  62
        -98.93990782
 C          2.9111191670        1.0830422113        0.2874325918
 C          2.6289915296        0.1279887321        1.3035948051
 C          3.0199675027       -1.2566919108        1.0280603113
 C          3.7181136416       -1.5365785061       -0.0869717882
 C          4.1805696692       -2.8993137504       -0.5251654093
 C          3.1251482259       -3.6694269949       -1.3314112263
 C          1.9317059881       -4.1769041177       -0.5200682308
 H          1.3690468810       -4.8569253095       -1.1627217841
 H          2.2925661642       -4.7550550582        0.3312122894
 C          0.9856490140       -3.0733186495       -0.0239951820
 H          1.1738247382       -2.1509541231       -0.5810211509
 H         -0.0536508641       -3.3480222600       -0.2252733295
 C          1.0913734050       -2.7733625277        1.4716658222
 H          0.7994974122       -3.6591472559        2.0404092046
 H          0.3749025842       -1.9800237728        1.7048796967
 C          2.4884499554       -2.3273275358        1.9305065286
 H          2.4036676047       -1.9103761876        2.9365696072
 H          3.1652576324       -3.1810760327        1.9577239308
 H          2.7674078119       -3.0277667516       -2.1403980938
 H          3.6211451987       -4.5306124919       -1.7846990102
 H          5.0549563156       -2.7457261877       -1.1610940811
 H          4.4776079935       -3.4853309987        0.3441885005
 O          4.0918966443       -0.5732057310       -0.9660942361
 C          3.6310931426        0.7415187619       -0.8558434980
 O          3.9598483423        1.4517501757       -1.8231759964
 O          2.0510419075        0.4280157245        2.3810825821
 C          2.2687657448        2.4443059620        0.5105938519
 C          0.7698740864        2.2518081091        0.5522663531
 C         -0.0269436054        2.9394245581        1.4585633812
 C         -1.3915022986        2.7141370596        1.5086755465
 C         -1.9857453004        1.7894685935        0.6690791147
 C         -1.1968781911        1.0880150457       -0.2327828914
 C          0.1648743896        1.3386399500       -0.2997192248
 H          0.7754305585        0.7845221739       -1.0036275535
 N         -1.7900982264        0.1153413937       -1.0612274085
 S         -2.6097740236       -1.1273661581       -0.2687693546
 O         -2.1292556703       -1.3030404804        1.0803119852
 O         -2.5126223543       -2.2717927283       -1.1482490116
 C         -4.2946897784       -0.5519030145       -0.2468078061
 C         -4.9433879931       -0.3682960917        0.9584071614
 C         -6.2530220992        0.0866075465        0.9518775117
 C         -6.8867208959        0.3481250416       -0.2532743775
 C         -6.2220153277        0.1556440598       -1.4554283426
 C         -4.9133339192       -0.2997282495       -1.4556741188
 H         -4.3622738459       -0.4671708135       -2.3659932742
 H         -6.7184197792        0.3593660216       -2.3905082833
 H         -7.9049820801        0.7036384053       -0.2556630317
 H         -6.7714126407        0.2358377741        1.8853998413
 H         -4.4078953026       -0.5807400242        1.8701847960
 H         -1.1458525637       -0.2794109110       -1.7321784048
 H         -3.0441831868        1.5917233413        0.7176336838
 H         -1.9976222763        3.2530568749        2.2206862575
 H          0.4335031031        3.6316012400        2.1480283057
 H          2.5779190581        2.7706960127        1.5176631303
 C          2.6857450769        3.5278168949       -0.4682851894
 C          1.8826622362        3.8650265142       -1.6852068243
 C          1.9405552035        4.8273967471       -0.5387555048
 H          2.5111369240        5.7358155018       -0.6567886808
 H          1.0525277587        4.9350965971        0.0648161499
 H          2.4201931630        4.0926301590       -2.5926863546
 H          0.9612324357        3.3267059013       -1.8487926885
 H          3.7623461919        3.5797990549       -0.5785156435
