  62
        -98.94060050
 C         -1.6336968200       -1.0224952103        0.8975568292
 C         -2.8710934798       -1.2460977809        0.2436779691
 C         -3.8674572103       -0.1729402613        0.3892048689
 C         -3.5751174508        0.9335925389        1.0942390188
 C         -4.4912123414        2.1030751985        1.3333887286
 C         -4.5062635917        3.1288013984        0.1915242385
 C         -5.2289329314        2.6787552280       -1.0788409915
 H         -6.2259975312        2.3203579676       -0.8207969716
 H         -5.3538019617        3.5634076079       -1.7064847316
 C         -4.4852937308        1.6037820082       -1.8839139414
 H         -4.4908659008        1.8728767381       -2.9425452314
 H         -3.4400019008        1.5691855287       -1.5681653713
 C         -5.0827685202        0.2013840480       -1.7702813013
 H         -4.4590349699       -0.4855739018       -2.3477065212
 H         -6.0844150402        0.1927167775       -2.2059368014
 C         -5.1705781102       -0.3327567419       -0.3347291713
 H         -5.9709443404        0.1713152578        0.2065297686
 H         -5.3967298797       -1.4009506920       -0.3804591012
 H         -3.4754455718        3.3959859788       -0.0517901714
 H         -5.0028627021        4.0263993882        0.5672848084
 H         -4.1320142217        2.5991305688        2.2377367986
 H         -5.5046023312        1.7437030381        1.5147672285
 O         -2.3729050110        1.1118994595        1.7051714789
 C         -1.3797133106        0.1523767199        1.6100040991
 O         -0.3237611607        0.4519431904        2.2035980391
 O         -3.1519531393       -2.2710607111       -0.4266800309
 C         -0.4732803896       -2.0032576698        0.8496052494
 C          0.4231700604       -1.6719206295       -0.3159385706
 C         -0.0903921195       -1.5358559499       -1.6027048006
 C          0.7426455004       -1.2100681096       -2.6565340406
 C          2.0943151403       -0.9957937290       -2.4466206205
 C          2.6163611203       -1.1249080287       -1.1653092104
 C          1.7798548303       -1.4723109689       -0.1121579405
 H          2.1988095503       -1.5681998187        0.8779821596
 N          3.9864146602       -0.9272106681       -0.9262464703
 S          4.4957204696        0.0214952223        0.3563490497
 O          5.9064598796        0.2237453928        0.1096273498
 O          4.1532411798       -0.6120833778        1.6028169797
 C          3.6271874890        1.5656706519        0.1529577994
 C          4.2272870986        2.5446692221       -0.6169655106
 C          3.5536491282        3.7335848218       -0.8403611208
 C          2.2893840680        3.9209566713       -0.3008594509
 C          1.7013354984        2.9283553511        0.4665360891
 C          2.3717962489        1.7370697014        0.6997130193
 H          1.9190347491        0.9642954813        1.3007166793
 H          0.7193747083        3.0587309507        0.8944499390
 H          1.7609031276        4.8450083110       -0.4754240611
 H          4.0124688279        4.5085190619       -1.4330867808
 H          5.2146592888        2.3605706524       -1.0087427005
 H          4.5215000201       -0.7073121279       -1.7544376503
 H          2.7418648103       -0.7333134688       -3.2693018904
 H          0.3348228405       -1.1127238299       -3.6513063006
 H         -1.1461302094       -1.6940794703       -1.7643102307
 H          0.1052731203       -1.8165303295        1.7693200494
 C         -0.9055627089       -3.4621087700        0.8828728695
 C         -0.7387480984       -4.4037207800       -0.2677424804
 C          0.1378821415       -4.5388292395        0.9385141697
 H         -0.0145642582       -5.3752034395        1.6038529197
 H          1.1697075814       -4.2324267091        0.8450119297
 H         -1.5170847081       -5.1334222804       -0.4303348404
 H         -0.2972467785       -4.0291731399       -1.1775340104
 H         -1.7867321389       -3.6093970303        1.4984487594
