  62
        -98.93719643
 C         -2.2637246521       -1.1212571342        0.0454185255
 C         -2.1044747020        0.0441880324       -0.7437505851
 C         -2.6505702454        1.2828488205       -0.1709555870
 C         -3.2005687708        1.2756108878        1.0556323867
 C         -3.7534359759        2.4671716858        1.7894241385
 C         -5.1973784747        2.8245312598        1.4107847701
 C         -5.3714011135        3.4542680232        0.0281865388
 H         -6.3873698464        3.8513414216       -0.0167978699
 H         -4.6872759588        4.2971971570       -0.0737961108
 C         -5.1698341149        2.4799415446       -1.1406676568
 H         -5.9754570225        2.6103398153       -1.8666168513
 H         -5.2327480111        1.4531719622       -0.7728975514
 C         -3.8502186263        2.6561676542       -1.8917356780
 H         -3.7953788194        1.8934945759       -2.6726276840
 H         -3.8317610823        3.6353692210       -2.3750716471
 C         -2.6006697988        2.5234198389       -1.0114465674
 H         -1.7268926198        2.4469429358       -1.6632723942
 H         -2.4881712146        3.4044604493       -0.3798365293
 H         -5.5626786339        3.5327004701        2.1580415517
 H         -5.8094623355        1.9224160076        1.4807854746
 H         -3.7274172899        2.2142972547        2.8516938446
 H         -3.1068240531        3.3296758129        1.6238720423
 O         -3.2969944200        0.1435344678        1.8027776576
 C         -2.8476447932       -1.0708207041        1.3147936411
 O         -3.0237065852       -2.0292682345        2.0941052359
 H          0.2957060231       -0.8985442015       -1.0365303494
 C          0.6112452410       -1.7031180793       -0.3880014622
 C         -0.3225639310       -2.6440178517        0.0256556130
 C          0.0973169777       -3.6712176937        0.8609533959
 C          1.4166007500       -3.7466909962        1.2757988578
 C          2.3409789247       -2.8003406274        0.8702195809
 C          1.9287902994       -1.7719601879        0.0335099149
 N          2.8597753970       -0.7789837504       -0.3705487096
 S          3.2467696708        0.2923109757        0.8833290617
 O          3.8703197663       -0.4596967205        1.9418424936
 O          2.0815075276        1.0698583443        1.2534122068
 C          4.4505445952        1.3326499240        0.0809380926
 C          5.7674899179        0.9176248612        0.0373606316
 C          6.6971097455        1.7094304203       -0.6177197407
 C          6.2961423470        2.8943801324       -1.2167194490
 C          4.9702967579        3.2973074363       -1.1648545686
 C          4.0353909331        2.5094388249       -0.5118407833
 H          2.9958199348        2.7878823818       -0.4389240148
 H          4.6607017161        4.2196919601       -1.6294438946
 H          7.0211811385        3.5096309410       -1.7257167522
 H          7.7291507798        1.4007958783       -0.6591450821
 H          6.0333232061       -0.0060612937        0.5237755135
 H          2.4676172354       -0.2231485921       -1.1223902151
 H          3.3630422951       -2.8312469599        1.2096656460
 H          1.7265548748       -4.5475647249        1.9299148164
 H         -0.6228566415       -4.3993397633        1.2052665788
 C         -1.7659474664       -2.4949973403       -0.3817512742
 H         -2.3544951054       -3.2118837621        0.2116756978
 C         -2.0232959482       -2.7947360507       -1.8526162759
 C         -0.9359918555       -3.0345591615       -2.8532839670
 C         -1.7777208507       -4.1780908259       -2.3790257669
 H         -2.4987687632       -4.6116253807       -3.0551578962
 H         -1.3200623143       -4.8871338315       -1.7053921881
 H          0.0887568217       -2.9862387477       -2.5199678917
 H         -1.0869467548       -2.6557784203       -3.8526665694
 H         -2.9076693635       -2.2861692418       -2.2216603808
 O         -1.5333191232        0.0767350837       -1.8653344662
