  62
        -98.94848939
 C         -2.3523846389       -0.6362695633        0.1708785674
 C         -1.5429872457       -0.0236927882       -0.8153119134
 C         -1.6953769900        1.4306888514       -0.9655765404
 C         -2.5552342484        2.0907623856       -0.1703587269
 C         -2.8115231841        3.5689937166       -0.2161155428
 C         -1.9062974167        4.3357932639        0.7563088190
 C         -0.4245330729        3.9766280332        0.6423913879
 H          0.1199492234        4.6242531367        1.3340758723
 H         -0.2683647274        2.9507972706        0.9855810322
 C          0.1621272238        4.1286402341       -0.7679462096
 H          1.1359067471        4.6164711870       -0.6867246550
 H         -0.4772044737        4.7750404754       -1.3712597076
 C          0.3892044252        2.8018648380       -1.4950262099
 H          1.0465405793        2.9863543978       -2.3492669777
 H          0.9066768530        2.1147766285       -0.8209382341
 C         -0.8711273660        2.1057859754       -2.0256326847
 H         -1.4768716022        2.8195730049       -2.5886568008
 H         -0.5514395192        1.3124765227       -2.7076133641
 H         -2.2314502204        4.1212911401        1.7771471721
 H         -2.0373700167        5.4048911511        0.5757968172
 H         -2.6529749860        3.9256348318       -1.2322324694
 H         -3.8531464462        3.7423203960        0.0614768712
 O         -3.2880054919        1.4768262802        0.7945575994
 C         -3.1829817705        0.1122782690        1.0070488795
 O         -3.8755017254       -0.3132075183        1.9546762663
 H         -0.3143672040       -1.0242643811        1.8327736452
 C          0.0490123608       -1.8567262445        1.2468820598
 C         -0.8347298249       -2.5717629699        0.4471712762
 C         -0.3418131189       -3.6385629007       -0.2929592731
 C          1.0035685423       -3.9626338940       -0.2457438537
 C          1.8870223815       -3.2164925148        0.5120241853
 C          1.4025264001       -2.1461332822        1.2553298981
 N          2.2621846540       -1.3252914476        2.0168811503
 S          2.3934190535        0.2763377024        1.5354383147
 O          3.3151986736        0.8784218765        2.4755812502
 O          1.0856761873        0.8723244094        1.4562331770
 C          3.1690056678        0.1997064796       -0.0705057349
 C          4.5147880396        0.5004490300       -0.1635105203
 C          5.1447746495        0.3944437639       -1.3924258619
 C          4.4228307145       -0.0183564250       -2.5024174272
 C          3.0752378103       -0.3217408974       -2.3902077395
 C          2.4352756338       -0.2153560117       -1.1640669912
 H          1.3842477213       -0.4409853577       -1.0651055534
 H          2.5064356148       -0.6434522198       -3.2478019877
 H          4.9120252503       -0.1033964501       -3.4600190352
 H          6.1927963082        0.6317754554       -1.4801040732
 H          5.0324386812        0.8191136761        0.7269167516
 H          3.1911734024       -1.7081196264        2.1312132130
 H          2.9411285112       -3.4502919288        0.5247305827
 H          1.3720613503       -4.7946070482       -0.8262340771
 H         -1.0048809754       -4.2049073449       -0.9258457291
 C         -2.2781847836       -2.1299232215        0.4437936443
 H         -2.6671838277       -2.2501292753        1.4691736261
 C         -3.1668369230       -2.9717316107       -0.4609617403
 C         -4.3769228565       -2.3849352217       -1.1229098840
 C         -3.1914647879       -2.7830090408       -1.9470213998
 H         -3.2768151103       -3.6580661076       -2.5744930862
 H         -2.5667321181       -2.0064253796       -2.3583200540
 H         -4.5698786810       -1.3322501584       -0.9734684428
 H         -5.2712985685       -2.9874715092       -1.1775675070
 H         -3.2719042403       -3.9882874803       -0.0946133798
 O         -0.7409918663       -0.6539233175       -1.5531605678
