  62
        -98.94027427
 C         -2.3597248249       -0.0478291636        0.1799915123
 C         -3.4325640345       -0.2267347995        1.0854132577
 C         -4.7198666429        0.3512049596        0.6791482699
 C         -4.8035901040        1.0095679268       -0.4917389681
 C         -6.0649410509        1.5976370295       -1.0535520914
 C         -6.7995983931        0.5877911913       -1.9464259348
 C         -6.9815333419       -0.7878955530       -1.3049878176
 H         -7.5379838468       -1.4055815091       -2.0132649175
 H         -6.0015706567       -1.2528218758       -1.1745435281
 C         -7.7158853932       -0.7684848246        0.0428839257
 H         -8.2551596797        0.1724273384        0.1576874206
 H         -8.4572341305       -1.5702582161        0.0493372757
 C         -6.8139341199       -0.9867606235        1.2589690054
 H         -6.2024548598       -1.8797322327        1.1064329976
 H         -7.4518083644       -1.1717103135        2.1273911349
 C         -5.8828204417        0.1787216239        1.6155284957
 H         -6.4603233260        1.1025388439        1.6876173203
 H         -5.4473658638       -0.0324782306        2.5966753413
 H         -7.7755504936        1.0025080967       -2.2050273822
 H         -6.2280170223        0.4619110386       -2.8688181271
 H         -6.7097241650        1.9101103643       -0.2344495153
 H         -5.8003529805        2.4718717440       -1.6505560028
 O         -3.7463267229        1.1763264067       -1.3273500785
 C         -2.4997416686        0.6518147728       -1.0184153339
 O         -1.6213880144        0.8762607928       -1.8724838780
 H          1.6056342994       -0.6614366369       -0.3709767549
 C          1.3319482656        0.2581523221        0.1188325787
 C          0.0505106557        0.4451776280        0.6119691501
 C         -0.2487633983        1.6509020486        1.2418840344
 C          0.7045229154        2.6432691058        1.3598109656
 C          1.9866868412        2.4470764289        0.8773175560
 C          2.2989009525        1.2452396979        0.2550350353
 N          3.5875556482        1.0085237599       -0.2499566709
 S          4.2172515904       -0.5523631306       -0.0969582396
 O          3.8174430301       -1.3325649720       -1.2408397964
 O          3.8788870440       -1.0958439597        1.1986488748
 C          5.9666184275       -0.2115796535       -0.1800501144
 C          6.6665788977       -0.0125182819        0.9953901775
 C          8.0197069145        0.2795644436        0.9292278690
 C          8.6464822862        0.3697929288       -0.3046622957
 C          7.9312608722        0.1667398721       -1.4755296271
 C          6.5779218540       -0.1263232285       -1.4165873373
 H          5.9837077257       -0.3005357614       -2.2985136737
 H          8.4227982949        0.2344134935       -2.4326129483
 H          9.6997730266        0.5965273776       -0.3538857201
 H          8.5789401306        0.4343621772        1.8378709186
 H          6.1400449555       -0.1035602099        1.9319001012
 H          4.2559826809        1.7133630561        0.0296679227
 H          2.7346142627        3.2190018481        0.9769793781
 H          0.4514049919        3.5748262204        1.8436290152
 H         -1.2446950112        1.8003801068        1.6367542374
 C         -1.0044399859       -0.6308259235        0.5288752044
 H         -1.1212760408       -1.0617016198        1.5358482581
 C         -0.6472312116       -1.7447017128       -0.4334481097
 C          0.2143319390       -2.8867193858        0.0127646797
 C         -1.2474794844       -3.1031380972       -0.2350457296
 H         -1.5460794012       -3.6678220574       -1.1054588425
 H         -1.8952760030       -3.2380444000        0.6189802264
 H          0.9276539957       -3.2966060411       -0.6872680801
 H          0.5651147632       -2.8793651365        1.0342465675
 H         -0.5340311720       -1.3908331531       -1.4528104301
 O         -3.3162998674       -0.8350603812        2.1839681899
