  62
        -98.94326447
 C          1.3134221319        0.9876098698       -0.0096399126
 C          1.8176515090       -0.0959757898        0.7491740804
 C          2.7773852544       -0.9702905952        0.0614395800
 C          3.0926270574       -0.7190114698       -1.2223803997
 C          4.0918823365       -1.4984612687       -2.0264633386
 C          5.4951750315       -0.8867608679       -1.9123787642
 C          5.9303492142       -0.6035967610       -0.4745220670
 H          6.9458447390       -0.2037025539       -0.5154609538
 H          5.2934368465        0.1798372927       -0.0575338213
 C          5.8996979711       -1.8279210673        0.4510748175
 H          6.8196914400       -1.8446687044        1.0391982293
 H          5.8801035997       -2.7417243449       -0.1440198050
 C          4.7359102378       -1.8435795343        1.4438108613
 H          4.9316053245       -2.6243875853        2.1835304504
 H          4.6977847356       -0.8901756928        1.9765736982
 C          3.3505559622       -2.1175820057        0.8448457342
 H          3.3860396003       -3.0229269289        0.2353703298
 H          2.6585086484       -2.2867481214        1.6749099371
 H          5.5083085897        0.0549481128       -2.4661362325
 H          6.2072716081       -1.5669930308       -2.3833090515
 H          4.1052553827       -2.5301141233       -1.6798139799
 H          3.7815835199       -1.4805384950       -3.0727599509
 O          2.5618359044        0.3119817501       -1.9293863699
 C          1.6654339786        1.1964402824       -1.3428999100
 O          1.2592526730        2.0955381727       -2.1028077482
 H         -0.8034417829       -0.1175253180       -0.6734617229
 C         -1.4533852747        0.7491160351       -0.6551874242
 C         -1.0140792967        1.9146575324       -0.0424483874
 C         -1.8731248972        3.0079470379       -0.0246779107
 C         -3.1282620905        2.9324029613       -0.6038421124
 C         -3.5594501083        1.7669317704       -1.2124148437
 C         -2.7068736618        0.6738926005       -1.2423119694
 N         -3.1597416930       -0.5399286137       -1.8226249429
 S         -4.1200354180       -1.4319352214       -0.7728085294
 O         -4.2993062513       -2.7255061311       -1.3920255430
 O         -5.3160525646       -0.6774320685       -0.5017548681
 C         -3.1272590697       -1.5763017470        0.7009177887
 C         -2.2294583788       -2.6207990049        0.7970040639
 C         -1.3619567102       -2.6622686048        1.8762579513
 C         -1.3948611857       -1.6546133456        2.8276490677
 C         -2.3027779675       -0.6132038141        2.7164308053
 C         -3.1769208305       -0.5678728782        1.6423968967
 H         -3.8924727158        0.2288061641        1.5176592358
 H         -2.3220779701        0.1711046064        3.4559554085
 H         -0.6978916330       -1.6737331969        3.6499335088
 H         -0.6516506191       -3.4687293090        1.9652992152
 H         -2.2305921374       -3.3811693739        0.0315931039
 H         -2.3988299057       -1.1289673898       -2.1330769409
 H         -4.5402969559        1.6809224769       -1.6502354459
 H         -3.7807549129        3.7917055508       -0.5786236840
 H         -1.5579126049        3.9232640339        0.4494094528
 C          0.3290336372        1.9340553441        0.6457582853
 H          0.1828937196        1.5374491615        1.6628709498
 C          0.9193743441        3.3269973423        0.7477994355
 C          0.6395165702        4.1911652372        1.9400587767
 C          1.9954016774        3.5801479710        1.7599352959
 H          2.8218454444        4.2189684584        1.4867914946
 H          2.2742437378        2.7564159038        2.4009551640
 H          0.0057321346        3.7880222622        2.7153509912
 H          0.5358954662        5.2555655522        1.7915804475
 H          1.0215537235        3.8051220513       -0.2199518735
 O          1.4773029032       -0.3222749181        1.9398965202
