  62
        -98.94323225
 C          1.4256479744        1.4254467499       -0.3158285123
 C          0.2843465619        1.6845356547       -1.1068498524
 C         -0.7670792007        2.5190911879       -0.4978188740
 C         -0.5951203934        2.9595178055        0.7619040407
 C         -1.5501412589        3.8136841380        1.5502008522
 C         -2.7165259535        3.0070878407        2.1592512801
 C         -3.1697003939        1.7986177510        1.3398488049
 H         -2.2979048759        1.1771316573        1.1235408113
 H         -3.8246755136        1.1914539264        1.9719205126
 C         -3.9356589350        2.1237081087        0.0565022331
 H         -4.9292558693        2.4871600384        0.3321005118
 H         -4.0676112069        1.1922803231       -0.5002950037
 C         -3.3056579743        3.1697045652       -0.8610580305
 H         -3.2907528824        4.1333850645       -0.3585238103
 H         -3.9634151536        3.2788965504       -1.7286639279
 C         -1.9228671708        2.8299819722       -1.4161792250
 H         -2.0058047603        1.9592546745       -2.0749893499
 H         -1.6017558647        3.6593820086       -2.0589543443
 H         -3.5615719357        3.6771421242        2.3256559828
 H         -2.3890850640        2.6276819897        3.1297042329
 H         -1.9140709498        4.6163427679        0.9132006110
 H         -0.9774635182        4.2658690216        2.3624735250
 O          0.4983445161        2.6450618820        1.5081758111
 C          1.5248322978        1.8663388966        1.0030726061
 O          2.4563913510        1.6590679260        1.8049115392
 O          0.1462381884        1.2385892497       -2.2789095702
 C          2.5418703774        0.5698496035       -0.8913310524
 C          2.6517852992       -0.6928317584       -0.0737248335
 C          3.8280273728       -1.1499631224        0.5037210699
 C          3.8173611093       -2.2827952352        1.3001162009
 C          2.6415245512       -2.9650709209        1.5507999763
 C          1.4608384636       -2.5240616060        0.9618162395
 C          1.4841516159       -1.4180492503        0.1306569298
 H          0.5690330150       -1.0786496745       -0.3306807790
 N          0.2467907135       -3.1887276306        1.1832575058
 S         -1.1936111499       -2.3332753535        1.1950536763
 O         -1.0195698428       -0.9735414837        1.6473046152
 O         -2.0868453442       -3.1577489020        1.9835918748
 C         -1.7251018144       -2.3884647489       -0.5023854326
 C         -2.0261177808       -1.2232795715       -1.1763790651
 C         -2.4440660602       -1.2988777413       -2.4954753158
 C         -2.5551446627       -2.5341503981       -3.1136918396
 C         -2.2548616497       -3.6978615392       -2.4210368801
 C         -1.8361757980       -3.6277062251       -1.1026685673
 H         -1.5967026039       -4.5072519396       -0.5288517746
 H         -2.3431217660       -4.6566768749       -2.9059662564
 H         -2.8769692932       -2.5879299120       -4.1417613321
 H         -2.6657537965       -0.3913854319       -3.0343220987
 H         -1.9133249684       -0.2786326503       -0.6678765837
 H          0.2729746743       -3.9057848080        1.8930452246
 H          2.6312097903       -3.8272278803        2.2001994331
 H          4.7361608733       -2.6262226331        1.7510689742
 H          4.7485737341       -0.6122297514        0.3473705475
 H          2.2104623714        0.2990458691       -1.9047224304
 C          3.8317657084        1.3546778311       -0.9890880700
 C          4.8668530971        0.9744998019       -2.0043106065
 C          4.0624518204        2.2253479257       -2.1865702349
 H          4.5481295137        3.1789678095       -2.0438639277
 H          3.2952554719        2.2359077358       -2.9468740535
 H          5.9088289027        1.0707069841       -1.7392407957
 H          4.6499812734        0.1348332288       -2.6468940945
 H          4.1665079437        1.7277700480       -0.0276773439
