  62
        -98.93887233
 C          1.7655025411        0.7679313992        0.4824749329
 C          2.7224526683        0.8190984375       -0.5611758114
 C          3.6105022296       -0.3502866273       -0.6609351689
 C          3.4332650028       -1.4071582923        0.1504859224
 C          4.2437912282       -2.6747401966        0.1475035990
 C          5.5478015773       -2.5815926718        0.9519279982
 C          6.6521526932       -1.7415454270        0.3088505536
 H          7.5707462654       -1.9413547652        0.8642842010
 H          6.8127562105       -2.0772621896       -0.7161199636
 C          6.3879166681       -0.2293848697        0.3216944129
 H          5.6073864315       -0.0022757176        1.0516699410
 H          7.2899923677        0.2950572872        0.6452298543
 C          5.9847467382        0.3550652713       -1.0322503782
 H          6.8132393957        0.2524992096       -1.7366162499
 H          5.7866403344        1.4218768773       -0.8998844265
 C          4.7354548333       -0.2866787057       -1.6497043957
 H          4.4079664517        0.3358835535       -2.4858480533
 H          4.9709173849       -1.2820636616       -2.0253253441
 H          5.3193488006       -2.1844260528        1.9437907114
 H          5.9245624883       -3.5989237793        1.0808162412
 H          3.6164034450       -3.4463653547        0.5986498632
 H          4.4685618217       -2.9654179984       -0.8790088761
 O          2.4467505228       -1.4507229878        1.0860562670
 C          1.6129123984       -0.3645750450        1.2871754001
 O          0.7782840413       -0.5227995737        2.2012332558
 O          2.8473118538        1.7707386967       -1.3718667508
 C          0.7972234021        1.9004042710        0.7856307369
 C         -0.4901106844        1.6642169764        0.0400510070
 C         -0.5022893735        1.4932184843       -1.3411620702
 C         -1.6887526661        1.2386002342       -2.0043553510
 C         -2.8798935041        1.1308139122       -1.3066350328
 C         -2.8729034371        1.2779141621        0.0738765857
 C         -1.6834374663        1.5529161305        0.7363529374
 H         -1.6823535193        1.6557740900        1.8129533044
 N         -4.0697272154        1.1271234664        0.7938107365
 S         -5.0607629482       -0.1580816776        0.3851177731
 O         -5.8989531334        0.2158164377       -0.7269547849
 O         -5.7567862040       -0.5027934226        1.6047918144
 C         -3.9664373327       -1.4790506080       -0.1126654298
 C         -2.9194243589       -1.8270120918        0.7176036379
 C         -2.0576298606       -2.8371741928        0.3228149940
 C         -2.2617660375       -3.4870058854       -0.8848023634
 C         -3.3240176255       -3.1337734891       -1.7025775578
 C         -4.1829105788       -2.1171665138       -1.3172958425
 H         -5.0126601419       -1.8012132696       -1.9286630291
 H         -3.4810067624       -3.6423984437       -2.6401083996
 H         -1.5866831414       -4.2715834122       -1.1884223262
 H         -1.2247056966       -3.0976171735        0.9571122435
 H         -2.7711993494       -1.3121731874        1.6533754928
 H         -3.9578406924        1.1949603933        1.7949413852
 H         -3.8120573012        0.9302453402       -1.8097669317
 H         -1.6875467313        1.1157029237       -3.0766456941
 H          0.4291129121        1.5593728521       -1.8834056889
 H          0.5748337347        1.8081706493        1.8609223908
 C          1.3885420247        3.2852712407        0.5680066589
 C          0.9139015582        4.2382478562       -0.4832514503
 C          0.5916638037        4.4961125497        0.9559491186
 H          1.0910294178        5.3055590803        1.4666125335
 H         -0.4283729426        4.3362750389        1.2731975925
 H          1.6562782836        4.8524697470       -0.9694667923
 H          0.1124178780        3.9284523530       -1.1348611775
 H          2.4493284623        3.3133562546        0.7928446652
