  62
        -98.94434681
 C          1.5875610420        1.4080553527        0.5019388774
 C          1.6454048587        0.1210052211        1.0944351237
 C          2.7896656779       -0.7124650084        0.7113944220
 C          3.7003264529       -0.2362477302       -0.1570008674
 C          4.9406481105       -0.9509566752       -0.6211591515
 C          4.7065195687       -1.9154097081       -1.7918527852
 C          3.9598081986       -3.2009077803       -1.4344724572
 H          4.0541486733       -3.8738457169       -2.2890237682
 H          4.4504613582       -3.6803309794       -0.5868805670
 C          2.4696192969       -3.0006172387       -1.1245487689
 H          2.1445013783       -2.0297596567       -1.5061226615
 H          1.8841233400       -3.7600815226       -1.6469345277
 C          2.1107479115       -3.0948407206        0.3581579517
 H          1.0416428360       -2.8959150579        0.4620223891
 H          2.3056715373       -4.1074835101        0.7172052190
 C          2.8624068777       -2.1059209797        1.2582053531
 H          3.9009455707       -2.4144511064        1.3764025804
 H          2.3825011631       -2.1027952431        2.2396660217
 H          4.1640084729       -1.3848635553       -2.5778392303
 H          5.6866430063       -2.1874739326       -2.1904867656
 H          5.3856999000       -1.4920543750        0.2143163453
 H          5.6401293906       -0.1780584356       -0.9470513413
 O          3.6018230702        0.9988025124       -0.7147374853
 C          2.5342776865        1.8391635490       -0.4276282396
 O          2.5630219642        2.9176731100       -1.0498874771
 O          0.7867086366       -0.3059873353        1.9109637017
 C          0.4090011615        2.2992110139        0.8588499436
 C         -0.5541721825        2.2995102949       -0.3025394852
 C         -0.6124308727        3.3204197589       -1.2428176765
 C         -1.4890743508        3.2345438691       -2.3100672026
 C         -2.3362218455        2.1498168030       -2.4458565760
 C         -2.2866855113        1.1234035498       -1.5088511059
 C         -1.3892204822        1.1988571058       -0.4559707939
 H         -1.3397124246        0.3935087495        0.2624378949
 N         -3.1304445586        0.0067997612       -1.6144331934
 S         -3.8811017074       -0.5845854495       -0.2356818042
 O         -5.0873743142       -1.2174063490       -0.7287216117
 O         -4.0687100028        0.4550600642        0.7488851970
 C         -2.7966599578       -1.8525501880        0.3796178822
 C         -2.3381045084       -1.7965378215        1.6796998092
 C         -1.5420434949       -2.8262572575        2.1548929259
 C         -1.2240341661       -3.8897830484        1.3252718531
 C         -1.6910051145       -3.9305004822        0.0192505105
 C         -2.4857874520       -2.9035055077       -0.4611725886
 H         -2.8749295890       -2.9016966116       -1.4658235213
 H         -1.4352473531       -4.7581656165       -0.6226968439
 H         -0.6064830884       -4.6914295156        1.6990038678
 H         -1.1671832167       -2.7864798346        3.1646782924
 H         -2.6039677096       -0.9500378390        2.2928802674
 H         -3.7728901854        0.0395889067       -2.3930909991
 H         -3.0304296764        2.0934169703       -3.2709456864
 H         -1.5213484964        4.0296645844       -3.0397711726
 H          0.0430111334        4.1703604457       -1.1491893053
 H         -0.0886287296        1.7962506842        1.6999495393
 C          0.8319769259        3.6817028209        1.3055253377
 C         -0.1588956489        4.5488780129        2.0210649624
 C          0.9974638713        3.9578691142        2.7686310156
 H          1.7978866683        4.6115519026        3.0813070884
 H          0.8008361888        3.1487494485        3.4568313012
 H         -0.1555132326        5.6097384557        1.8228202710
 H         -1.1419911937        4.1379683073        2.1976388403
 H          1.5313891157        4.1593051332        0.6310414942
