  62
        -98.94059923
 C          1.1163824754        1.3580961241        0.5416311416
 C          1.6764610588        0.8098210771       -0.6346954160
 C          2.5476520519       -0.3727768910       -0.4659702006
 C          2.6703242878       -0.9217879405        0.7561965094
 C          3.5095465567       -2.0991006086        1.1785403923
 C          5.0035808660       -1.7560843334        1.2840380986
 C          5.5601270087       -0.9526618434        0.1119946101
 H          5.0116068949       -0.0128175212        0.0297457707
 H          6.5983339196       -0.7022670886        0.3455512485
 C          5.5443215295       -1.6714233622       -1.2352650106
 H          6.0749332914       -1.0340742232       -1.9471702225
 H          6.1022463977       -2.6064681053       -1.1495985533
 C          4.1605919010       -1.9771615326       -1.8148371775
 H          3.7253613430       -2.8558133882       -1.3460562614
 H          4.2990626078       -2.2267720767       -2.8707132207
 C          3.1827504222       -0.8074288602       -1.7647714594
 H          3.6707990162        0.0824254874       -2.1785904054
 H          2.3473846670       -1.0132899770       -2.4434497113
 H          5.5637330849       -2.6868707043        1.3894289292
 H          5.1537300753       -1.1681139850        2.1929055097
 H          3.3567069670       -2.9366090935        0.5046078139
 H          3.1539508990       -2.3976152643        2.1672505663
 O          2.0188985852       -0.4190679681        1.8449993845
 C          1.2512353667        0.7225590301        1.7760135844
 O          0.7357403157        1.0656106989        2.8614285203
 O          1.4862609272        1.2819169212       -1.7846554777
 C          0.2558713739        2.6123029811        0.4992433799
 C         -1.0743878951        2.2343037042       -0.1039433617
 C         -1.4822074705        2.5965766714       -1.3799584422
 C         -2.6903140989        2.1416151310       -1.8828079425
 C         -3.5138345022        1.3256949211       -1.1282890089
 C         -3.1141726376        0.9634908533        0.1518577465
 C         -1.9055800926        1.4162084321        0.6529563156
 H         -1.5873450292        1.1227189861        1.6456165933
 N         -3.9366973741        0.1114558963        0.9259310651
 S         -4.0986272466       -1.4394941771        0.3125536110
 O         -4.9347424821       -1.3914418664       -0.8592483160
 O         -4.5817373341       -2.2467749188        1.4095073633
 C         -2.4438613901       -1.9289492960       -0.1387743627
 C         -2.0099113264       -1.7401342954       -1.4350643214
 C         -0.7089563699       -2.0867277180       -1.7610356816
 C          0.1303845626       -2.6103755804       -0.7907055544
 C         -0.3164034960       -2.7820284500        0.5102126947
 C         -1.6148532634       -2.4338096993        0.8429582894
 H         -2.0013845673       -2.5615529452        1.8418368679
 H          0.3431463126       -3.1798101255        1.2650450109
 H          1.1393560489       -2.8863502731       -1.0504965087
 H         -0.3531551105       -1.9438511499       -2.7687103880
 H         -2.6953866209       -1.3379064474       -2.1627553151
 H         -3.6324528491        0.0518226959        1.8882781742
 H         -4.4489799220        0.9504464132       -1.5114463188
 H         -2.9935245095        2.4257104958       -2.8790059361
 H         -0.8467711715        3.2194710132       -1.9869880217
 H          0.0793610268        2.8884481369        1.5482760745
 C          0.9500148821        3.7625234577       -0.1954750711
 C          0.4431542975        5.1568977491        0.0133363061
 C          1.7461910355        4.7341155400        0.6206771325
 H          2.6616726918        5.1275299673        0.2049469357
 H          1.7854963998        4.5775435182        1.6891338962
 H          0.4632896182        5.8440478831       -0.8185794594
 H         -0.4038778939        5.2866133575        0.6701594409
 H          1.3372032021        3.5019765436       -1.1720648243
