  62
        -98.93869164
 C          1.6520605106        0.8190309586        0.6633655006
 C          2.8731404506        1.2473695791        0.0860633312
 C          4.0767699206        0.5175013587        0.5193412907
 C          3.9646909905       -0.4857185620        1.4071894499
 C          5.0990360604       -1.3489067124        1.8769302294
 C          5.2545977105       -2.5938454917        0.9923533484
 C          5.2771706507       -2.2895178004       -0.5056929414
 H          5.4230213508       -3.2380507300       -1.0273142221
 H          4.2988616108       -1.9064609002       -0.8059417312
 C          6.3655360708       -1.2961266301       -0.9361448904
 H          7.1291887707       -1.2248058207       -0.1608064802
 H          6.8519026109       -1.6787526394       -1.8359269606
 C          5.8492532508        0.1046419302       -1.2697365193
 H          5.0193450409        0.0296078207       -1.9768061495
 H          6.6536490709        0.6539929306       -1.7660076588
 C          5.3891601307        0.9477661992       -0.0739564287
 H          6.1703602906        0.9622005186        0.6886073114
 H          5.2353139407        1.9707104295       -0.4297131879
 H          6.1763936405       -3.1053734019        1.2755969181
 H          4.4173492205       -3.2671498418        1.1914764877
 H          6.0189167904       -0.7673869024        1.8680223100
 H          4.8894302902       -1.6654874132        2.9000875991
 O          2.7779436704       -0.8594822824        1.9520291194
 C          1.6021515804       -0.2221086222        1.5950046198
 O          0.5887793803       -0.6556057726        2.1806208293
 H         -2.0809082694        0.2408177291        0.0784775996
 C         -1.5351866292        0.2327071298       -0.8515869303
 C         -0.2748659592        0.8087672099       -0.9078095996
 C          0.4257895510        0.7718954708       -2.1101639596
 C         -0.1320761289        0.1731784817       -3.2244785701
 C         -1.3861726089       -0.4095343283       -3.1606256608
 C         -2.0914666391       -0.3849290893       -1.9636548009
 N         -3.3738310191       -0.9449653494       -1.8706328915
 S         -3.8173938793       -1.8007730605       -0.4976937623
 O         -2.6964500393       -2.5100543609        0.0715713073
 O         -4.9329845092       -2.6137970001       -0.9346162231
 C         -4.4215312394       -0.5509018914        0.6160470587
 C         -3.8457974096       -0.3968801624        1.8617333089
 C         -4.3371374397        0.5858478669        2.7075501996
 C         -5.3888788797        1.3900558373        2.2957676901
 C         -5.9578955195        1.2194166483        1.0424404699
 C         -5.4722184194        0.2392592790        0.1922855892
 H         -5.8879429392        0.0708354198       -0.7869881810
 H         -6.7745842994        1.8479986385        0.7261796103
 H         -5.7648020998        2.1549332267        2.9567789307
 H         -3.8907181899        0.7200559861        3.6800341398
 H         -3.0174566596       -1.0315324826        2.1397553485
 H         -3.6974617490       -1.4011118287       -2.7115656019
 H         -1.8155705888       -0.8835570776       -4.0303425512
 H          0.4184427512        0.1529887225       -4.1531641801
 H          1.4066078810        1.2196444809       -2.1593223391
 C          0.3100920006        1.4484122289        0.3253972210
 H         -0.3448525895        1.1863641282        1.1713900706
 C          0.3625409506        2.9693453589        0.2517973022
 C          0.1023978008        3.7542519399       -0.9954029172
 C         -0.9142741094        3.7435845090        0.1035477326
 H         -1.0523633394        4.6352389186        0.6958629533
 H         -1.8179984993        3.1746434092       -0.0588323879
 H         -0.1230940991        3.2171080407       -1.9027026277
 H          0.6906294508        4.6453972801       -1.1528488264
 H          1.1037938405        3.3804416484        0.9291591326
 O          2.9764731308        2.1850155497       -0.7448570481
