  62
        -98.94141108
 C         -2.3349398094       -1.1041422961       -0.5174704037
 C         -3.6513216212       -1.0063529750       -0.0003649577
 C         -4.4211392498        0.1695192156       -0.4182776891
 C         -3.8616906895        1.0740836521       -1.2422775795
 C         -4.5224062059        2.3189307618       -1.7692922089
 C         -4.4549878026        3.5142421779       -0.8087857909
 C         -5.3650487683        3.4166140279        0.4162848292
 H         -5.3825656678        4.4043486046        0.8811819286
 H         -6.3820778614        3.1897229086        0.0949927637
 C         -4.9119596588        2.3882615223        1.4622198224
 H         -3.8647863401        2.1278527148        1.2886536497
 H         -4.9674853567        2.8333836703        2.4583034432
 C         -5.7436558197        1.1058588282        1.4923615664
 H         -6.7657718719        1.3394870367        1.7983565724
 H         -5.3123934015        0.4364273045        2.2409854578
 C         -5.7934032257        0.3534585926        0.1562082761
 H         -6.2136685541       -0.6387728198        0.3373415343
 H         -6.4337256005        0.8819109128       -0.5495313570
 H         -3.4196217896        3.6436677798       -0.4841465210
 H         -4.7389369423        4.4040392132       -1.3754821262
 H         -3.9950765746        2.5856697417       -2.6876464410
 H         -5.5631659210        2.1059486687       -2.0147081564
 O         -2.5961611849        0.9434602590       -1.7199844235
 C         -1.7947832245       -0.1307738774       -1.3580448279
 O         -0.6544405194       -0.1005213652       -1.8601718288
 O         -4.1592460386       -1.8645541241        0.7690825963
 C         -1.4832049520       -2.2870516547       -0.0862334097
 C         -0.3802979188       -1.7633048752        0.7997104330
 C         -0.6702368737       -1.4482749708        2.1247301794
 C          0.2934690742       -0.8936099719        2.9452793301
 C          1.5646611486       -0.6349132498        2.4617919410
 C          1.8598260084       -0.9360028236        1.1395323722
 C          0.8942778758       -1.5079147023        0.3203587715
 H          1.1316607874       -1.7216199749       -0.7096661805
 N          3.1499046873       -0.6788743152        0.6319108387
 S          3.8167425928        0.8335788771        0.9849511846
 O          4.3390968690        0.7954783287        2.3288389699
 O          2.8623689369        1.8856404032        0.7119265355
 C          5.1630817448        0.8860767927       -0.1806681620
 C          4.9528944703        1.4493858389       -1.4250081659
 C          5.9948637641        1.4617391223       -2.3389869806
 C          7.2202987684        0.9100091590       -1.9962139281
 C          7.4151242460        0.3470535490       -0.7437417525
 C          6.3781955243        0.3327261828        0.1754789809
 H          6.4840218843       -0.0852477979        1.1627855118
 H          8.3698554703       -0.0791543827       -0.4811786118
 H          8.0285930127        0.9214762629       -2.7102073483
 H          5.8460268900        1.9001700700       -3.3127212541
 H          3.9855136239        1.8724823067       -1.6467644207
 H          3.1856934742       -0.8424366440       -0.3660641934
 H          2.3214164780       -0.1863214846        3.0847621996
 H          0.0545362601       -0.6539107345        3.9707871576
 H         -1.6688905069       -1.6301424291        2.4976313446
 H         -2.1458988331       -2.9126931360        0.5267827228
 C         -0.9961481198       -3.1015643854       -1.2655215240
 C         -0.4348892994       -4.4709160754       -1.0287067561
 C         -1.7708068373       -4.3121791699       -1.6883427391
 H         -1.8548729016       -4.5258393424       -2.7433299904
 H         -2.6552411101       -4.5622687623       -1.1211065742
 H          0.3996967842       -4.7980867063       -1.6296031265
 H         -0.4107992845       -4.8277319526       -0.0102355272
 H         -0.5555261996       -2.4993086817       -2.0506973408
