  62
        -98.93653273
 C         -2.2560552181       -1.4007961558        0.3793330343
 C         -2.3761153420       -0.4792922592       -0.6858104562
 C         -3.2260493496        0.7034009229       -0.4424036547
 C         -3.8337779973        0.8384672761        0.7499750869
 C         -4.7414173567        1.9433600136        1.2287979028
 C         -5.8133201852        2.4285091398        0.2406473013
 C         -5.5475821864        3.8334856428       -0.3024195718
 H         -5.1652336938        4.4539919192        0.5107642981
 H         -6.4957441497        4.2683153843       -0.6261070638
 C         -4.5822309231        3.9004932894       -1.4847407191
 H         -4.3676285641        4.9542352646       -1.6774763741
 H         -5.0724065178        3.5006869219       -2.3749997813
 C         -3.2573825113        3.1591229884       -1.2924254550
 H         -2.8737077253        3.3127236806       -0.2840729356
 H         -2.5260738440        3.5959781808       -1.9762869724
 C         -3.3419080483        1.6566160681       -1.6002349958
 H         -2.5226733826        1.3745933039       -2.2695072933
 H         -4.2646756037        1.4392173815       -2.1462064748
 H         -6.7682041465        2.4468096409        0.7682605203
 H         -5.9104490109        1.7179456210       -0.5786137496
 H         -4.1229756386        2.7859046336        1.5487006382
 H         -5.2175443683        1.5481181600        2.1290639460
 O         -3.6676997944       -0.0666632270        1.7579504283
 C         -2.8762102892       -1.1908580416        1.6086632493
 O         -2.8013165322       -1.9095266725        2.6265031128
 O         -1.8003635773       -0.6316033560       -1.7948603451
 C         -1.3966217153       -2.6418584922        0.2163151997
 C          0.0210096420       -2.2401981014       -0.1134332319
 C          0.7561434148       -2.7949946376       -1.1520482634
 C          2.0454004674       -2.3597394654       -1.4074683704
 C          2.6310187470       -1.3754890873       -0.6331650592
 C          1.9074642977       -0.8194968620        0.4140184433
 C          0.6178510706       -1.2581778813        0.6680678949
 H          0.0521617279       -0.8196217612        1.4822857467
 N          2.4991988685        0.1727119006        1.2187072400
 S          3.1406245232        1.5206233841        0.4448114156
 O          3.1121852762        2.5726317283        1.4385431040
 O          2.4632565140        1.7949778835       -0.8010926795
 C          4.8328923804        1.0607161938        0.1366147448
 C          5.3354196041        1.1036441792       -1.1490689457
 C          6.6572424739        0.7448548350       -1.3638040413
 C          7.4483235101        0.3527838758       -0.2948103784
 C          6.9288682568        0.3177410624        0.9908706375
 C          5.6087846358        0.6759049103        1.2125935041
 H          5.1668206507        0.6655932708        2.1949110162
 H          7.5471153986        0.0122819623        1.8195352703
 H          8.4759586232        0.0728913274       -0.4647267734
 H          7.0626568597        0.7718136630       -2.3624843048
 H          4.6799692948        1.4087131171       -1.9493378769
 H          1.9134207078        0.4634265798        1.9886885967
 H          3.6320561552       -1.0301774729       -0.8334081931
 H          2.6019667099       -2.7932940111       -2.2242218245
 H          0.3158877937       -3.5593411428       -1.7707246186
 H         -1.3908916704       -3.1375197407        1.1983214153
 C         -2.0163659213       -3.5785362610       -0.7992793239
 C         -1.7890783526       -5.0562287634       -0.7001034759
 C         -3.1304819128       -4.4800045075       -0.3627251557
 H         -3.9528146372       -4.6493122826       -1.0414754544
 H         -3.4249660121       -4.4354121866        0.6759795927
 H         -1.6933524318       -5.6257321381       -1.6121220105
 H         -1.1738122533       -5.4139055942        0.1114555086
 H         -2.0900134397       -3.1330228938       -1.7845971728
