  62
        -98.94472213
 C          1.9957317548       -0.9597260141        0.4304116293
 C          3.0748540332       -1.2466437726       -0.4438584845
 C          4.3596738982       -0.6167609069       -0.1163346218
 C          4.4440145955        0.1791488812        0.9651998472
 C          5.6735246824        0.9318156432        1.3819982821
 C          5.7015818799        2.3359734637        0.7621541069
 C          5.4326061740        2.3530664106       -0.7427043862
 H          4.4040236127        2.0326964737       -0.9249429815
 H          5.5077911660        3.3910709629       -1.0741438981
 C          6.3894356854        1.4820354618       -1.5688223942
 H          6.7101388955        2.0494273292       -2.4450478673
 H          7.2824967348        1.2565159861       -0.9848331092
 C          5.7768415223        0.1777491001       -2.0825539351
 H          4.8318988676        0.3916846659       -2.5883094269
 H          6.4568892282       -0.2472003808       -2.8255974730
 C          5.5230604076       -0.9026033768       -1.0236340034
 H          6.4326310333       -1.0701997339       -0.4434023978
 H          5.2737379071       -1.8295328131       -1.5481971149
 H          4.9394453153        2.9463213440        1.2523617057
 H          6.6765616827        2.7831188102        0.9645462449
 H          5.6683808088        1.0246423883        2.4693691447
 H          6.5562409860        0.3719543701        1.0791576756
 O          3.3911505875        0.4271872745        1.7835500476
 C          2.1400842519       -0.1206127814        1.5352978412
 O          1.2725956061        0.2081087552        2.3671940122
 O          2.9669467014       -1.9972364894       -1.4496446355
 C          0.6419797412       -1.5717363989        0.1088162918
 C         -0.2799744967       -0.4770724088       -0.3671207064
 C         -0.2394967292       -0.0792237211       -1.7003322933
 C         -1.0534918568        0.9394532406       -2.1601940723
 C         -1.9235539937        1.5849688575       -1.2989428970
 C         -1.9639336004        1.2005537886        0.0343834200
 C         -1.1557169032        0.1689507196        0.4920792128
 H         -1.1866434051       -0.1088602541        1.5336429069
 N         -2.8574865248        1.8480134210        0.9114442305
 S         -4.4720234481        1.8014397690        0.4660060153
 O         -4.7191561896        2.7973335090       -0.5463565378
 O         -5.2207720694        1.9464240364        1.6942631964
 C         -4.6869070498        0.1688346780       -0.2201186043
 C         -4.6327757905       -0.9087416251        0.6417643671
 C         -4.7158696549       -2.1890401029        0.1202487480
 C         -4.8433760712       -2.3690098385       -1.2486970317
 C         -4.8978386565       -1.2769982414       -2.1004378300
 C         -4.8164504650        0.0064563712       -1.5841125554
 H         -4.8543329313        0.8824060535       -2.2104637189
 H         -4.9979838005       -1.4205098302       -3.1642239329
 H         -4.9007615862       -3.3675565868       -1.6525252292
 H         -4.6750285517       -3.0409966426        0.7797905819
 H         -4.5379674805       -0.7301720531        1.7009646630
 H         -2.7449622001        1.5609683094        1.8731720581
 H         -2.5687669318        2.3804974024       -1.6353866676
 H         -1.0114068863        1.2348055369       -3.1975206010
 H          0.4471359345       -0.5763639274       -2.3711182121
 H          0.8271435029       -2.2482776487       -0.7362276024
 C          0.0770929754       -2.3750014804        1.2622468204
 C         -1.1218606577       -3.2430785748        1.0256226400
 C          0.2207404462       -3.8660142658        1.2593333081
 H          0.4019797214       -4.3667587494        2.1986761391
 H          0.7289763047       -4.3176058939        0.4201697840
 H         -1.8642974109       -3.3175734164        1.8051698478
 H         -1.5280872590       -3.2660368801        0.0258412397
 H          0.1585154580       -1.8729010900        2.2184177696
