  62
        -98.94350941
 C         -0.7533577070       -1.8637210549       -0.1236084643
 C         -1.8241296153       -1.5825241080        0.7527752326
 C         -2.8411062434       -0.6213316255        0.2823479459
 C         -2.7117050301       -0.0957594776       -0.9499404939
 C         -3.5968603236        0.9121618245       -1.6355878069
 C         -3.3936819950        2.3427975249       -1.1126569230
 C         -3.3231271919        2.4683920253        0.4070656844
 H         -2.4944073259        1.8681384046        0.7904205674
 H         -3.0885341031        3.5101455098        0.6439556156
 C         -4.6061551331        2.0985132111        1.1484460386
 H         -5.4229821390        2.7265193551        0.7853730838
 H         -4.4469871210        2.3372034538        2.2033353444
 C         -5.0379985555        0.6327581115        1.0554359912
 H         -5.5231547845        0.4224058560        0.1059663449
 H         -5.7903079455        0.4664801335        1.8319925593
 C         -3.9198577739       -0.3732590686        1.3081511756
 H         -3.3986402202       -0.1044549730        2.2351024548
 H         -4.3681559575       -1.3548048727        1.5052311770
 H         -4.2073927487        2.9648831532       -1.4899163721
 H         -2.4564720962        2.7293187169       -1.5207014733
 H         -4.6377320336        0.6154647106       -1.5473114863
 H         -3.3346970298        0.8891948717       -2.6956406273
 O         -1.6697201302       -0.4148158023       -1.7709267455
 C         -0.6508255701       -1.2647046752       -1.3772129302
 O          0.2581320990       -1.4057554642       -2.2156783435
 O         -1.9318732827       -2.1086692618        1.8951625142
 C          0.3465571348       -2.8046890385        0.3283612310
 C          1.6592132839       -2.0647658408        0.4178183347
 C          2.8582989739       -2.5746327585       -0.0634707864
 C          4.0310068236       -1.8516353759        0.0709353497
 C          4.0340670226       -0.6121001807        0.6830793833
 C          2.8410046322       -0.0965621400        1.1772231883
 C          1.6695815293       -0.8236745908        1.0433828768
 H          0.7502956051       -0.4145787398        1.4368055818
 N          2.8102628180        1.1495678324        1.8294598553
 S          1.6274144941        2.2563273455        1.4192702832
 O          2.1195416290        3.5131346514        1.9431523577
 O          0.3418965785        1.8286735848        1.9088461501
 C          1.6364486508        2.3023073383       -0.3613224215
 C          2.7727499935        2.7528464476       -1.0049833455
 C          2.7983670161        2.7576315123       -2.3894669994
 C          1.6946458559        2.3137566321       -3.1026540773
 C          0.5595083857        1.8726176398       -2.4421045533
 C          0.5312970342        1.8638164386       -1.0570737951
 H         -0.3266172519        1.5193084689       -0.5017369754
 H         -0.2950873130        1.5124548510       -2.9921257300
 H          1.7170112133        2.3101402432       -4.1809631492
 H          3.6775536816        3.1027771813       -2.9093404182
 H          3.6067429491        3.1035911501       -0.4189550119
 H          3.7106075358        1.6022770591        1.8977960342
 H          4.9490456760       -0.0491690977        0.7867473285
 H          4.9549640280       -2.2581438005       -0.3108643124
 H          2.8751899589       -3.5383809143       -0.5448472386
 H          0.0652281686       -3.1125843029        1.3472422615
 C          0.3973703707       -4.0332705194       -0.5553391810
 C          0.8622333053       -5.3453918950        0.0000306584
 C         -0.5876761173       -5.1364187990       -0.3145210589
 H         -1.0117100746       -5.6448832319       -1.1673281500
 H         -1.2785937484       -5.0127620786        0.5069330704
 H          1.4329521563       -6.0029659085       -0.6381766038
 H          1.1550360207       -5.3733525992        1.0387826857
 H          0.6390663076       -3.7954088943       -1.5849166422
