  62
        -98.93685904
 C         -0.8842420833       -1.3608945023       -0.5639922543
 C         -1.9068268861       -1.6165866479        0.3821682418
 C         -2.9304283271       -0.5734961942        0.5805105739
 C         -2.8340271404        0.5634453689       -0.1329682701
 C         -3.7711169039        1.7417111553       -0.1410002262
 C         -5.0693150044        1.4633375006       -0.9163948550
 C         -5.7061871379        0.1035456160       -0.6426956032
 H         -4.9868081746       -0.6833304594       -0.8767668154
 H         -6.5485192437       -0.0132457677       -1.3298965963
 C         -6.2312663692       -0.0949064017        0.7771139164
 H         -6.7360573716       -1.0641113502        0.8038843391
 H         -6.9773991875        0.6728320519        0.9940845927
 C         -5.1779995544       -0.0778133793        1.8868129846
 H         -5.6520708513       -0.4709562887        2.7909546398
 H         -4.8678086666        0.9375288519        2.1176859014
 C         -3.9578157937       -0.9535639788        1.6194350265
 H         -4.2914609394       -1.9646530327        1.3591702567
 H         -3.3990818185       -1.0694784981        2.5560354723
 H         -4.8418162240        1.5132572710       -1.9839718288
 H         -5.7849967784        2.2546043438       -0.6868860371
 H         -3.2412267873        2.5558162555       -0.6383698995
 H         -3.9868709031        2.0544778965        0.8761029672
 O         -1.8290299236        0.7726909455       -1.0278041377
 C         -0.8304452335       -0.1581740114       -1.2694137200
 O          0.0022973533        0.2140912483       -2.1150524114
 O         -1.9738117727       -2.6930683059        1.0365959393
 C          0.1674429432       -2.4433085983       -0.7265033699
 C          1.2778374539       -2.2520220785        0.2749304710
 C          1.7429147310       -3.3143415435        1.0412662150
 C          2.7611510200       -3.1247488532        1.9586359594
 C          3.3392743278       -1.8786587028        2.1200095017
 C          2.8768269406       -0.8080893207        1.3623282411
 C          1.8466351431       -0.9991951029        0.4535343701
 H          1.4925337182       -0.1661705198       -0.1333191338
 N          3.4140341353        0.4751778860        1.5239330802
 S          3.5247529791        1.5117028259        0.2146065677
 O          3.8640773265        0.7989367140       -0.9942356546
 O          4.4850256645        2.5110482173        0.6393754895
 C          1.9298438193        2.2895352014        0.0937151468
 C          1.4742550400        2.6882348223       -1.1459395278
 C          0.2704729450        3.3694889565       -1.2291875895
 C         -0.4521405403        3.6358282035       -0.0780760941
 C          0.0143487495        3.2191128000        1.1592856293
 C          1.2205047929        2.5447017461        1.2507236147
 H          1.6128482149        2.2067583751        2.1957680059
 H         -0.5578427356        3.4178450813        2.0514479801
 H         -1.3871387052        4.1698845162       -0.1451140518
 H         -0.1011516426        3.6759610121       -2.1936858613
 H          2.0532878216        2.4413452640       -2.0211463620
 H          4.2136532109        0.5409882779        2.1363216127
 H          4.1376411365       -1.7301685217        2.8309204404
 H          3.1125203707       -3.9558137998        2.5510134962
 H          1.2910429032       -4.2882368183        0.9237520168
 H         -0.3469632518       -3.3832436652       -0.4679236004
 C          0.6847420618       -2.5914830046       -2.1491731196
 C          1.9975459587       -2.0495867564       -2.6197648919
 C          1.8197681797       -3.5267275053       -2.4470516374
 H          1.7618949140       -4.1474542216       -3.3284333524
 H          2.3148812850       -3.9929018261       -1.6084904197
 H          2.0357521907       -1.6426630631       -3.6190818968
 H          2.6212597020       -1.5099646829       -1.9232964532
 H         -0.1249107329       -2.5648515626       -2.8722818926
