  62
        -98.93468634
 C         -1.9263363981       -1.3284460898        0.4228441574
 C         -2.4490094785       -0.6154663095       -0.6813159896
 C         -3.6852865270        0.1636006419       -0.4464076370
 C         -4.2221104718        0.1814997085        0.7868092163
 C         -5.4427293434        0.9218410271        1.2650221685
 C         -5.1830083548        2.4236438380        1.4653077075
 C         -4.3860205668        3.0922226848        0.3480308812
 H         -4.1763407917        4.1195051875        0.6581659736
 H         -3.4246355379        2.5862705135        0.2388583723
 C         -5.0866143965        3.1476603854       -1.0075120591
 H         -6.0296180982        3.6886530923       -0.9011241082
 H         -4.4464080571        3.7256907768       -1.6790188205
 C         -5.3721313928        1.7979647808       -1.6696677240
 H         -5.6374164090        1.9979318344       -2.7119633407
 H         -6.2354344275        1.3148078703       -1.2198462886
 C         -4.1863613950        0.8386616693       -1.7004073277
 H         -3.3195033469        1.3530283965       -2.1313914068
 H         -4.4149972650        0.0265892059       -2.4014570587
 H         -4.6217525411        2.5485509801        2.3946962123
 H         -6.1437723059        2.9278182075        1.5819416048
 H         -6.2700294004        0.7594268324        0.5807618757
 H         -5.7168240259        0.4855861976        2.2282189906
 O         -3.6528986854       -0.4813583853        1.8348864497
 C         -2.5034576807       -1.2322940510        1.6904403044
 O         -2.0909301391       -1.7506810290        2.7480686975
 O         -1.9226288788       -0.6118074997       -1.8235754184
 C         -0.6632714231       -2.1656209060        0.3122660664
 C          0.4016252573       -1.3903614647       -0.4243746731
 C          1.0058071829       -1.8241516634       -1.5961051776
 C          1.9683776575       -1.0464668254       -2.2169056154
 C          2.3546318761        0.1684614245       -1.6829259645
 C          1.7661779422        0.6052984438       -0.5022616814
 C          0.8069352329       -0.1772985771        0.1207333308
 H          0.3429009075        0.1674555766        1.0374837052
 N          2.1615618711        1.8320212695        0.0571322231
 S          3.7954241360        2.1877309760        0.1015845269
 O          3.9593377993        3.0697772773        1.2362390474
 O          4.2124798689        2.7200748449       -1.1717376706
 C          4.6103529422        0.6279175376        0.3975848030
 C          4.2870576121       -0.0686024226        1.5452959225
 C          4.8866439484       -1.2958737769        1.7758191898
 C          5.7955117730       -1.8030549671        0.8595197898
 C          6.1142739242       -1.0888933570       -0.2847731919
 C          5.5156949916        0.1383019664       -0.5214862606
 H          5.7316125601        0.7252032838       -1.3993703660
 H          6.8226346760       -1.4847424475       -0.9944794995
 H          6.2574635289       -2.7606840233        1.0405698207
 H          4.6396926464       -1.8522592375        2.6658600558
 H          3.5802858918        0.3544798647        2.2413833214
 H          1.7090238445        2.0538956690        0.9310762414
 H          3.0865585938        0.7939957097       -2.1676754278
 H          2.4189398260       -1.3883627510       -3.1360450858
 H          0.7018844148       -2.7567291773       -2.0413675333
 H         -0.3221495338       -2.2943084334        1.3530124919
 C         -0.8865125411       -3.5647858019       -0.2417208208
 C         -2.2007117610       -4.2633987894       -0.0634946580
 C         -1.7606453156       -3.8316921957       -1.4285341855
 H         -1.4524343837       -4.5934622253       -2.1298245919
 H         -2.2508597540       -2.9884729433       -1.8878864233
 H         -2.1936605146       -5.3168574645        0.1729425721
 H         -2.9987414978       -3.7147628784        0.4160074573
 H          0.0002017672       -4.1830431339       -0.1415960558
