  62
        -98.93892321
 C          1.8214479452        0.9758490015       -0.1994719939
 C          2.9710986791        1.0799173715        0.6245743257
 C          4.2101577507        0.4317666193        0.1557633048
 C          4.1910259535       -0.2145192088       -1.0244001568
 C          5.3042265327       -0.9751278371       -1.6945875258
 C          5.5565900553       -2.3478630515       -1.0513895273
 C          5.5811947748       -2.3469898950        0.4747631619
 H          5.6669849161       -3.3855021491        0.8055634847
 H          4.6285383716       -1.9671164254        0.8486467672
 C          6.7264360563       -1.5590859930        1.1065362554
 H          7.6773353585       -1.9598741654        0.7484473453
 H          6.6798109303       -1.7298966216        2.1851371551
 C          6.7124982398       -0.0477349817        0.8656958990
 H          7.0772069078        0.1961908346       -0.1285371791
 H          7.4170476668        0.4001904971        1.5725238750
 C          5.3642279577        0.6222938429        1.1100349488
 H          5.5188665226        1.7063481970        1.1699596627
 H          4.9919813833        0.3310335057        2.0988859101
 H          6.5014929942       -2.7385905522       -1.4328798024
 H          4.7588921800       -3.0231470646       -1.3709712990
 H          6.2121777908       -0.3794127969       -1.7026095668
 H          4.9981669411       -1.1287160184       -2.7318701958
 O          3.0646160180       -0.2887776872       -1.7864802880
 C          1.8651741778        0.2869761005       -1.4105406642
 O          0.9492740552        0.1065694435       -2.2400467005
 O          2.9685338151        1.6993486242        1.7222919445
 C          0.5606950208        1.6594773056        0.3021560369
 C         -0.4069756836        0.6755656660        0.9145698488
 C         -0.7609991645        0.7605913443        2.2557493506
 C         -1.6758660694       -0.1230724282        2.8026539280
 C         -2.2566492728       -1.1072578220        2.0234446691
 C         -1.9031331045       -1.2034235342        0.6837796241
 C         -0.9914011293       -0.3137928526        0.1363243319
 H         -0.7186726643       -0.3979849936       -0.9051276989
 N         -2.5054439279       -2.1914858931       -0.1244304198
 S         -4.1769152722       -2.0890938231       -0.2276194498
 O         -4.7598809069       -2.6611934809        0.9601811445
 O         -4.5344816380       -2.7222918195       -1.4770519001
 C         -4.5056855109       -0.3370138014       -0.2839014915
 C         -5.0038118290        0.3054004343        0.8310811522
 C         -5.1725036316        1.6800836213        0.7911626003
 C         -4.8375203527        2.3843298759       -0.3545792962
 C         -4.3402579922        1.7235576254       -1.4674259435
 C         -4.1673562373        0.3498473361       -1.4328043925
 H         -3.7844108215       -0.1964879603       -2.2803132457
 H         -4.0811211210        2.2715680912       -2.3593635561
 H         -4.9653131607        3.4550732772       -0.3815353857
 H         -5.5592745394        2.1974089041        1.6541420434
 H         -5.2511443949       -0.2806154533        1.7007888398
 H         -2.1058300675       -2.2284890440       -1.0519460653
 H         -2.9773524627       -1.8003454002        2.4266191443
 H         -1.9403040975       -0.0441234103        3.8459697710
 H         -0.3055263363        1.5208382221        2.8732047706
 H          0.9020911277        2.3324325524        1.0998277693
 C         -0.1364062208        2.4875744356       -0.7609113594
 C         -1.0785673714        3.5709968923       -0.3336508264
 C          0.2452989647        3.9247687820       -0.9407137705
 H          0.2664425977        4.3298025183       -1.9413382082
 H          1.0147651876        4.3218901184       -0.2946917260
 H         -1.9719845345        3.7328864773       -0.9157692607
 H         -1.2085916780        3.7297352089        0.7258300214
 H         -0.3841624349        1.9243866209       -1.6509672772
