  62
        -98.93865738
 C         -1.5494378879       -1.6063314585        0.1640483458
 C         -1.7866488909       -0.8411603030       -1.0009377019
 C         -2.8094645354        0.2212682244       -0.8986517883
 C         -3.4227833145        0.4349466572        0.2777752220
 C         -4.4624027921        1.4701178812        0.6110751047
 C         -3.8209820571        2.7646133317        1.1392880778
 C         -3.4322309835        3.7812286365        0.0664578569
 H         -4.3385828993        4.2179713848       -0.3583096732
 H         -2.8827959628        4.5841721768        0.5629553246
 C         -2.5730351335        3.2361483133       -1.0765044802
 H         -2.0830669564        4.0834077030       -1.5605664127
 H         -1.7835949077        2.5996235223       -0.6752141322
 C         -3.3829115925        2.4609095343       -2.1257284336
 H         -4.4463170644        2.6292495481       -1.9586524095
 H         -3.1610351086        2.8563070587       -3.1195986889
 C         -3.0960602902        0.9559323692       -2.1813055460
 H         -3.9306436578        0.4537426744       -2.6835007966
 H         -2.2142638550        0.7817153560       -2.8067093886
 H         -2.9404758332        2.4921460805        1.7258908000
 H         -4.5252369412        3.2483167219        1.8190536942
 H         -5.0974650389        1.6688647993       -0.2470325603
 H         -5.0754815611        1.0392138401        1.4055769127
 O         -3.1239496644       -0.2886911781        1.3923772678
 C         -2.2129448764       -1.3250388137        1.3638922618
 O         -2.0794500790       -1.9181770043        2.4510401147
 H          0.8739000620       -1.3928783794       -1.5839678082
 C          1.4289353515       -1.5619170850       -0.6733044641
 C          0.8393085338       -2.2784044432        0.3578227642
 C          1.5583077242       -2.4631167958        1.5329923807
 C          2.8337882581       -1.9421292187        1.6697779269
 C          3.4072030511       -1.2044516302        0.6492032151
 C          2.6898217110       -1.0065555779       -0.5230636220
 N          3.2196392712       -0.1671453172       -1.5261808083
 S          3.5755748341        1.3841656498       -0.9898090775
 O          3.2800689165        2.2659015032       -2.0971797680
 O          4.9363279358        1.4174777429       -0.5135578726
 C          2.4674692352        1.6726562216        0.3838237502
 C          1.1085136974        1.5177645930        0.1902511789
 C          0.2608219898        1.6481013993        1.2775392321
 C          0.7757408348        1.9478845049        2.5287638649
 C          2.1396049222        2.1216381341        2.7021970710
 C          2.9955824630        1.9723728704        1.6230227410
 H          4.0644987189        2.0734439507        1.7174236265
 H          2.5374125235        2.3578889476        3.6758009600
 H          0.1068861957        2.0385990074        3.3702396948
 H         -0.7991729767        1.4938834141        1.1466264323
 H          0.7225154051        1.2877279775       -0.7909403044
 H          2.6252965919       -0.1189600946       -2.3426656757
 H          4.3853545439       -0.7613497358        0.7476105785
 H          3.3807160770       -2.0974673751        2.5868960276
 H          1.1011924802       -3.0012202832        2.3504102510
 C         -0.5781749794       -2.7788679730        0.2215980471
 H         -0.8309467074       -3.3226534989        1.1411201335
 C         -0.7277082504       -3.7280102949       -0.9511049234
 C         -0.2344819634       -5.1354335286       -0.8115684778
 C         -1.7065871957       -4.8576935617       -0.8569754866
 H         -2.2593991265       -5.1352220894       -1.7419554634
 H         -2.2727194591       -4.9542999782        0.0582331951
 H          0.2269318121       -5.6066416006       -1.6657859993
 H          0.1971075848       -5.4225989548        0.1353273344
 H         -0.6180261762       -3.2494496903       -1.9150428172
 O         -1.1896387825       -1.0130497991       -2.0990939310
