  62
        -98.93163443
 C         -2.4880576930       -0.8016062547       -0.0251922220
 C         -2.9096383439        0.3463696297        0.6919980882
 C         -4.0428170052        1.1023990765        0.1365856483
 C         -4.6101825377        0.6846361436       -1.0076759128
 C         -5.7445845302        1.3114019107       -1.7792333985
 C         -6.9410965389        1.8393244897       -0.9763149780
 C         -7.2708256047        1.0442343031        0.2954626654
 H         -8.3321979799        0.7891301260        0.2896239767
 H         -6.7109946908        0.1074484819        0.3069606705
 C         -6.9830155730        1.8257768540        1.5796577244
 H         -7.3324527911        2.8524634549        1.4504668698
 H         -7.5600537709        1.3847843751        2.3961399801
 C         -5.5198491846        1.8474818826        2.0203944319
 H         -5.2238579088        0.8554208807        2.3722653586
 H         -5.4351053567        2.5266214568        2.8722521015
 C         -4.5100851533        2.2790087731        0.9443871170
 H         -4.9186673667        3.0639757249        0.3126828928
 H         -3.6228995862        2.6665931092        1.4524747056
 H         -6.7696375503        2.8809851051       -0.7087227582
 H         -7.8014917654        1.8253316112       -1.6475193979
 H         -5.3339894399        2.1239704427       -2.3857106152
 H         -6.0812515209        0.5341725144       -2.4695286410
 O         -4.1700212893       -0.4199287181       -1.6707244925
 C         -3.1066452011       -1.1886403801       -1.2136790480
 O         -2.8398723351       -2.1554532016       -1.9493522581
 H          0.8224976818       -0.7126207565        1.9456605576
 C          0.9937493261       -0.6752271265        0.8780893288
 C         -0.0141356369       -1.0752921538        0.0134928580
 C          0.2142266859       -1.0026544742       -1.3572827881
 C          1.4266334227       -0.5456078841       -1.8406382112
 C          2.4291819964       -0.1452165561       -0.9740583778
 C          2.2102494537       -0.2082943097        0.3951184315
 N          3.2145500257        0.2164945879        1.2787139191
 S          4.7818816133       -0.3397954282        1.0548849645
 O          4.7927604021       -1.6395237192        0.4253483967
 O          5.4011296090       -0.2503519864        2.3588850602
 C          5.5197470013        0.8706205142       -0.0220158078
 C          6.1029952934        0.4717806464       -1.2086487578
 C          6.6821868827        1.4300237504       -2.0260556472
 C          6.6684266116        2.7626371882       -1.6438421974
 C          6.0807302030        3.1464746439       -0.4474841343
 C          5.5015246361        2.1934186846        0.3748132479
 H          5.0393733024        2.4504722618        1.3133454604
 H          6.0721291679        4.1838151087       -0.1537786575
 H          7.1186717004        3.5066581225       -2.2818812517
 H          7.1403910059        1.1335358542       -2.9559447238
 H          6.0862866614       -0.5750446041       -1.4676207205
 H          2.9496335964        0.1808847917        2.2522785611
 H          3.3735754902        0.2138166346       -1.3489832445
 H          1.5925713976       -0.4974344830       -2.9062662000
 H         -0.5671673051       -1.3122143148       -2.0351072850
 C         -1.3242331018       -1.5775887755        0.5643904592
 H         -1.3430886792       -1.3301460511        1.6380414714
 C         -1.4815189550       -3.0873522506        0.4505231943
 C         -0.6295747615       -3.9550302692       -0.4211420990
 C         -0.4561739017       -3.9940129270        1.0657079075
 H         -0.7906320546       -4.8654682399        1.6078802472
 H          0.4330156471       -3.5348438848        1.4727196953
 H         -1.1078166549       -4.7877995678       -0.9135560454
 H          0.1452453648       -3.4906287433       -1.0101764365
 H         -2.5183674041       -3.3914912661        0.5531351866
 O         -2.3555354331        0.7255565370        1.7591059714
