  62
        -98.94966063
 C         -1.6840520612        1.2307760914       -0.3393829660
 C         -1.3314646270        0.1624505196        0.5179564041
 C         -1.9135757458       -1.1416587971        0.1887884989
 C         -2.6927869036       -1.2682268303       -0.9002722809
 C         -3.3278527201       -2.5408693315       -1.3915228171
 C         -4.6510520942       -2.8925113883       -0.6972233519
 C         -4.5204805673       -3.3857336041        0.7443646578
 H         -5.4895750657       -3.8001359653        1.0292229062
 H         -3.7941421469       -4.1980953532        0.7831122441
 C         -4.1327018728       -2.2962971993        1.7537169424
 H         -4.3100153570       -1.3127841291        1.3126939507
 H         -4.7724814330       -2.3730850347        2.6356225381
 C         -2.6839395532       -2.3672507546        2.2360738421
 H         -2.5274271069       -3.2943572016        2.7916853279
 H         -2.5083164839       -1.5308416963        2.9168883453
 C         -1.6417047301       -2.2900404973        1.1125215370
 H         -1.6148168019       -3.2256120570        0.5536757134
 H         -0.6581310991       -2.1291042799        1.5609513315
 H         -5.1271573232       -3.6795708421       -1.2866247798
 H         -5.3024903140       -2.0159966813       -0.7256962740
 H         -3.5237192613       -2.3974667725       -2.4566443064
 H         -2.6218228746       -3.3647766546       -1.2802335231
 O         -2.9855400564       -0.2219788011       -1.7188233845
 C         -2.4908982382        1.0462328332       -1.4599048226
 O         -2.8344213787        1.9135476020       -2.2911619366
 O         -0.5631070952        0.2924466291        1.5074002449
 C         -1.1129828235        2.6140536512       -0.0872292287
 C          0.3941299697        2.5433063105       -0.0239351588
 C          1.1540940826        3.2759360396        0.8798399528
 C          2.5329336327        3.1543490085        0.8994204239
 C          3.1798387466        2.2861713691        0.0389994993
 C          2.4287900292        1.5568310692       -0.8750730004
 C          1.0535461212        1.7124463686       -0.9207813553
 H          0.4865513674        1.1392064674       -1.6402381288
 N          3.0318562024        0.6373132857       -1.7603717972
 S          2.6234423303       -0.9771104463       -1.5561123502
 O          3.4340895042       -1.6921457919       -2.5194413348
 O          1.1980781842       -1.1460375583       -1.6709398822
 C          3.1911389836       -1.3640177734        0.0909763850
 C          4.4261630111       -1.9678640426        0.2351529303
 C          4.9130611763       -2.2077918589        1.5094757599
 C          4.1643304752       -1.8312364124        2.6146287374
 C          2.9299870992       -1.2221129559        2.4521537080
 C          2.4333013825       -0.9816476382        1.1795557978
 H          1.4727342174       -0.5109782131        1.0348348393
 H          2.3412073620       -0.9250649343        3.3052776081
 H          4.5435020800       -2.0133313670        3.6078643665
 H          5.8724085993       -2.6830298571        1.6364827039
 H          4.9702274576       -2.2447715841       -0.6535267441
 H          4.0395494977        0.7155319199       -1.7988089503
 H          4.2527078099        2.1699129478        0.0721599363
 H          3.1094613825        3.7292649626        1.6077844721
 H          0.6647286572        3.9388576324        1.5745826278
 H         -1.3946508298        3.2257620822       -0.9573547458
 C         -1.7348672362        3.2160443414        1.1571285490
 C         -1.9409495411        4.6964434355        1.2648305558
 C         -3.1164773536        3.7884815318        1.0677592359
 H         -3.7950748065        3.6318967506        1.8928214559
 H         -3.5958576696        3.7701380552        0.0994326262
 H         -1.8164270532        5.1660125034        2.2289757376
 H         -1.6303164475        5.3074769279        0.4307975173
 H         -1.4783386331        2.6659587500        2.0553030527
