  62
        -98.94947877
 C         -1.0394690147       -1.7336014216        0.1092722942
 C         -1.6794062178       -0.9654677245        1.1103898735
 C         -2.8461894545       -0.1889633091        0.6770871282
 C         -3.2311990151       -0.2285485693       -0.6114856399
 C         -4.3998386686        0.5075090205       -1.2082660239
 C         -4.0916562144        1.9667525199       -1.5715101518
 C         -3.9994652253        2.9275965780       -0.3853232395
 H         -4.0259521232        3.9402314274       -0.7928953444
 H         -4.8780602287        2.8073779203        0.2501068883
 C         -2.7248313512        2.7733361490        0.4558248573
 H         -1.9673572223        2.2447163840       -0.1292028615
 H         -2.3123420552        3.7623575313        0.6724471699
 C         -2.9310396455        2.0670492706        1.7961695295
 H         -3.5758927320        2.6787714599        2.4316818904
 H         -1.9603132689        1.9807814943        2.2904066605
 C         -3.5440745855        0.6645075222        1.6938936266
 H         -3.4355724320        0.1742398079        2.6648915539
 H         -4.6054459088        0.7378320871        1.4568963269
 H         -3.1542487887        1.9983045036       -2.1331941053
 H         -4.8892044892        2.3140566374       -2.2328862234
 H         -4.6680889346       -0.0262953037       -2.1226097951
 H         -5.2479793722        0.4723038798       -0.5233487247
 O         -2.5946976324       -0.9850246561       -1.5442228826
 C         -1.4791166063       -1.7425575311       -1.2151349128
 O         -0.9872052130       -2.3723980469       -2.1711215518
 H          0.6007839076       -0.1248044347       -0.6587173794
 C          1.4624684818       -0.7631083433       -0.7629513936
 C          1.4160139005       -2.0609966241       -0.2782856233
 C          2.5287834178       -2.8738826357       -0.4684640904
 C          3.6423790339       -2.3925169409       -1.1339305418
 C          3.6834117131       -1.0938172534       -1.6097426277
 C          2.5769335175       -0.2734018747       -1.4252148236
 N          2.5601879818        1.0443953167       -1.9001272736
 S          1.6566720266        2.2205924995       -1.1353480915
 O          0.2502092715        2.0246956283       -1.3830404042
 O          2.2156250115        3.4634015843       -1.6237613225
 C          2.0339874135        2.0317718446        0.5972223501
 C          3.3171763838        2.3327645992        1.0122700726
 C          3.6548776836        2.1407536682        2.3415978100
 C          2.7122223102        1.6430197027        3.2293910885
 C          1.4273702571        1.3517435620        2.7997606962
 C          1.0832586929        1.5514043931        1.4724971152
 H          0.0909522498        1.3292052309        1.1136095327
 H          0.6873434452        0.9515835045        3.4752080065
 H          2.9782364919        1.4821462925        4.2621690443
 H          4.6516030406        2.3724581204        2.6808266411
 H          4.0204563954        2.7225680060        0.2944922684
 H          3.4363322693        1.3937757652       -2.2568128363
 H          4.5530363401       -0.7215296190       -2.1287356128
 H          4.4955323417       -3.0370883828       -1.2809769891
 H          2.5183178844       -3.8872907298       -0.1013639631
 C          0.1945806730       -2.5319787176        0.4768284216
 H          0.3638700646       -2.3291760238        1.5461684682
 C         -0.0571965099       -4.0176996863        0.3013278396
 C          0.5155958646       -5.0113283548        1.2664024429
 C         -0.9533777402       -4.7178196423        1.2776133280
 H         -1.6373865993       -5.4658118234        0.9058564210
 H         -1.3515868606       -4.1289558962        2.0911465385
 H          0.8418177980       -5.9679780590        0.8868324228
 H          1.1083186705       -4.6327218961        2.0854915655
 H         -0.1366979921       -4.3024873263       -0.7417928173
 O         -1.2947280374       -0.9309146949        2.3108020020
