  62
        -98.94590996
 C         -1.0900916503       -1.2965128390       -0.0420262603
 C         -1.7430475998       -0.5576758893        0.9793005902
 C         -2.5508639995        0.5903770412        0.5488344310
 C         -2.5984612296        0.9011789219       -0.7589746888
 C         -3.3916244494        2.0329444625       -1.3440895681
 C         -4.7941726096        1.5725087832       -1.7646651781
 C         -5.5308064397        0.7780601729       -0.6860565984
 H         -5.0079773700       -0.1670073974       -0.5217182890
 H         -6.5191798698        0.5334249234       -1.0810782484
 C         -5.6820601992        1.5140652322        0.6525769220
 H         -6.7058406192        1.3828838523        1.0091140721
 H         -5.5246881989        2.5832879522        0.5066699826
 C         -4.7564814592        1.0111356013        1.7618685316
 H         -4.8398817595       -0.0754981887        1.8426640410
 H         -5.0998397789        1.4369026409        2.7083385519
 C         -3.2727539991        1.3712791008        1.6117634815
 H         -2.7783227190        1.1213255902        2.5554249113
 H         -3.1723606288        2.4451179209        1.4389231021
 H         -4.6995480499        0.9413562037       -2.6514925885
 H         -5.3795845593        2.4529521536       -2.0360679075
 H         -2.8601864794        2.4047057828       -2.2223137280
 H         -3.4648711790        2.8342243321       -0.6110642776
 O         -1.9531072600        0.1817128522       -1.7101070794
 C         -1.1963328404       -0.9408684182       -1.3882464701
 O         -0.6999229707       -1.5017006278       -2.3838175505
 O         -1.6542329897       -0.8502981400        2.2015790200
 C         -0.2505511706       -2.4723510395        0.4227492889
 C          1.1868613196       -2.0677871401        0.6587089389
 C          1.8525918396       -2.4740289410        1.8098756886
 C          3.1712375598       -2.1177908616        2.0255349685
 C          3.8429492999       -1.3289273513        1.1092704989
 C          3.1854540299       -0.9122528004       -0.0420975008
 C          1.8710889897       -1.2955868999       -0.2689168108
 H          1.3856435997       -0.9800620892       -1.1793848005
 N          3.8319281100       -0.0860991701       -0.9807881605
 S          3.0489753004        1.3195701904       -1.4483105096
 O          1.9902362001        1.0298554713       -2.3788549695
 O          4.1101449806        2.1743538903       -1.9378000193
 C          2.3898268609        1.9782272598        0.0718762209
 C          3.2527967012        2.6262353690        0.9345589211
 C          2.7695931716        3.0795234885        2.1507798315
 C          1.4409440416        2.8671071888        2.4872589616
 C          0.5869541212        2.2172621295        1.6099708613
 C          1.0639102308        1.7679777001        0.3888347910
 H          0.4261630006        1.2592578307       -0.3173913092
 H         -0.4444844188        2.0406915197        1.8699141414
 H          1.0641937718        3.2100790684        3.4377780318
 H          3.4282446919        3.5909223179        2.8339502716
 H          4.2757734812        2.7774722588        0.6302958010
 H          4.7954162101        0.1154539394       -0.7514922205
 H          4.8673542500       -1.0354881617        1.2803656688
 H          3.6765937698       -2.4435158922        2.9214925983
 H          1.3249308796       -3.0645629212        2.5435077883
 H         -0.6734083105       -2.7631349099        1.3947002788
 C         -0.2975316111       -3.6774515090       -0.4963763818
 C         -0.0623636715       -5.0435945994        0.0719565575
 C         -1.4342052115       -4.6465790887       -0.3825342621
 H         -1.8301239118       -5.0811998580       -1.2879437823
 H         -2.1838734313       -4.4501285288        0.3702716281
 H          0.4893204481       -5.7568284492       -0.5207491630
 H          0.1132375386       -5.1242600800        1.1336860174
 H          0.0822754888       -3.4719832386       -1.4889232817
