  62
        -98.94304169
 C          1.1968398099        1.1351519638       -0.0745278632
 C          1.7674281776        0.2217968842        0.8461365468
 C          2.6331806067       -0.8183875492        0.2753680338
 C          2.8224756987       -0.8575612620       -1.0558904196
 C          3.7151615507       -1.8325416157       -1.7665993441
 C          5.1363397632       -1.2734061807       -1.9221952760
 C          5.7236401474       -0.7101365360       -0.6280309294
 H          5.1511495512        0.1716593542       -0.3311375111
 H          6.7381578075       -0.3732055351       -0.8518616636
 C          5.7615516684       -1.7067535147        0.5389893440
 H          6.7363037251       -1.6370064531        1.0264529383
 H          5.6621878045       -2.7246334517        0.1600235489
 C          4.7052196280       -1.4610397247        1.6179322911
 H          4.7419396745       -0.4153993149        1.9334790238
 H          4.9595315177       -2.0739533988        2.4867305737
 C          3.2602381717       -1.7971469390        1.2277253929
 H          2.6550186211       -1.7574513515        2.1374208137
 H          3.2164131315       -2.8114003150        0.8257401746
 H          5.1140800192       -0.4726205781       -2.6651450907
 H          5.7807139900       -2.0690666553       -2.3007947374
 H          3.7411995936       -2.7672583719       -1.2097022198
 H          3.2992079300       -2.0223285020       -2.7577461835
 O          2.2484511908        0.0265923007       -1.9115395767
 C          1.4304266419        1.0506599502       -1.4477187749
 O          0.9772233911        1.7831619815       -2.3475387913
 H         -0.8805098490        0.1993254457       -0.9630192234
 C         -1.5951829003        0.9387611548       -0.6263740558
 C         -1.1601193476        2.0363888561        0.0982056881
 C         -2.1141462417        2.9588292240        0.5211694429
 C         -3.4546656686        2.7793462655        0.2326815477
 C         -3.8808268108        1.6800067109       -0.4939787176
 C         -2.9373429053        0.7663236830       -0.9343570941
 N         -3.3620657050       -0.3790088783       -1.6569760992
 S         -3.9609055961       -1.5853035747       -0.6561921132
 O         -4.0483560511       -2.7762431634       -1.4705425978
 O         -5.1897264464       -1.1178113069       -0.0686234047
 C         -2.7109233198       -1.7765507321        0.6013581461
 C         -2.7964614141       -1.0214399943        1.7535659585
 C         -1.7689925399       -1.0962030011        2.6795846356
 C         -0.6755778282       -1.9122303687        2.4360924288
 C         -0.6021637352       -2.6603495219        1.2713869053
 C         -1.6260991585       -2.5896427969        0.3408476210
 H         -1.6061213811       -3.1574328805       -0.5764239067
 H          0.2547819760       -3.2871164732        1.0817402602
 H          0.1303168201       -1.9506247380        3.1511788329
 H         -1.8139800644       -0.5085327208        3.5820292187
 H         -3.6609615800       -0.3950356649        1.9030509292
 H         -2.6212169350       -0.7722610791       -2.2217344654
 H         -4.9216829834        1.5099917373       -0.7151061342
 H         -4.1782224177        3.5016992105        0.5777921013
 H         -1.7985072434        3.8209660602        1.0867551191
 C          0.2933916583        2.2179738297        0.4737085167
 H          0.3626697804        2.1210723580        1.5678493997
 C          0.7862289500        3.6004136127        0.0801631688
 C          0.7610155105        4.7335066437        1.0603520458
 C          2.0662158778        4.1100338521        0.6705485993
 H          2.7426242299        4.6637949833        0.0370590645
 H          2.5637052635        3.4782149775        1.3922987411
 H          0.3949575865        4.5340705484        2.0563527390
 H          0.5360040251        5.7239042576        0.6948287657
 H          0.5998167381        3.8269928138       -0.9631170187
 O          1.5625764136        0.2766829129        2.0869728908
