  62
        -98.94531026
 C          2.1329526460        0.8990564538        0.0743193553
 C          2.8559980514        0.2347339664        1.0927597579
 C          3.5703088809       -0.9825391623        0.6856412457
 C          3.4599555131       -1.4152845658       -0.5838721778
 C          4.1665689380       -2.6148467489       -1.1443912739
 C          5.5230643414       -2.2283017025       -1.7504035467
 C          6.3861890099       -1.3645853869       -0.8306492634
 H          7.3295400073       -1.1804804785       -1.3490634226
 H          5.9003426236       -0.3959388471       -0.6929678643
 C          6.6706416569       -1.9882550021        0.5428711099
 H          6.4782314574       -3.0612201275        0.5095986488
 H          7.7293833231       -1.8557469324        0.7749668973
 C          5.8812801653       -1.3676661837        1.6969923143
 H          5.9961845441       -0.2810614631        1.6764287344
 H          6.3134003194       -1.7250691953        2.6354034568
 C          4.3825351078       -1.6928351317        1.7321016307
 H          4.2380755693       -2.7732651234        1.6651286531
 H          3.9912719004       -1.3533042627        2.6957962355
 H          6.0604075029       -3.1439057100       -2.0040188296
 H          5.3430854576       -1.6726584172       -2.6735854248
 H          4.3057128998       -3.3504463585       -0.3543381977
 H          3.5386854713       -3.0485359246       -1.9247966701
 O          2.7175718087       -0.7759628637       -1.5238350710
 C          2.0435413586        0.3999583861       -1.2255710565
 O          1.4153744054        0.8891257086       -2.1826360246
 H         -0.0963181025        0.1585765658        1.2947585062
 C         -0.6972780517        0.8461306721        0.7111135105
 C         -0.0939796845        1.9747857096        0.1686397815
 C         -0.8752269504        2.8471236327       -0.5765810892
 C         -2.2177667328        2.5804712350       -0.7851243751
 C         -2.8106179908        1.4514894010       -0.2513070362
 C         -2.0401469839        0.5761595122        0.5033846363
 N         -2.6368893374       -0.5697358207        1.0633155305
 S         -3.4617808101       -1.5992306366        0.0206992969
 O         -3.4307692445       -2.8929948879        0.6690437571
 O         -2.9291647973       -1.5395828246       -1.3210087159
 C         -5.1306419741       -0.9789317262        0.0485442002
 C         -5.7544362920       -0.6284326250       -1.1327078686
 C         -7.0569387712       -0.1555580655       -1.0875899767
 C         -7.7085866137       -0.0434991223        0.1310634605
 C         -7.0684591392       -0.4020395633        1.3082342940
 C         -5.7670571120       -0.8763989522        1.2701861412
 H         -5.2347091189       -1.1689423794        2.1597297358
 H         -7.5785336481       -0.3133371166        2.2538463370
 H         -8.7214629018        0.3256619004        0.1634834812
 H         -7.5558085599        0.1233470171       -2.0018265923
 H         -5.2047682857       -0.7269751219       -2.0553825994
 H         -2.0061950250       -1.1027792012        1.6454784522
 H         -3.8537419537        1.2377219754       -0.4177773896
 H         -2.8107636458        3.2623673051       -1.3752096189
 H         -0.4312644837        3.7296461670       -1.0064935345
 C          1.3812953692        2.1734808477        0.4161024789
 H          1.5304577088        2.3196756216        1.4964115781
 C          1.9722203328        3.3556204986       -0.3219821083
 C          1.8638083611        4.7345335311        0.2551034504
 C          3.1853775877        4.0287028475        0.2441913811
 H          3.9502048269        4.3709461968       -0.4367503736
 H          3.5721934250        3.6486580523        1.1786022045
 H          1.7231624564        5.5658637850       -0.4188787994
 H          1.3546590258        4.8410372430        1.2008605754
 H          1.9197855014        3.2418991860       -1.3989886404
 O          2.8953321304        0.6364670699        2.2877893183
