  62
        -98.94014643
 C         -0.7176515122       -1.6946748389        0.6066356999
 C         -1.4931417617       -1.5798712386       -0.5688718704
 C         -2.7154966911       -0.7554915676       -0.4785571210
 C         -2.9955469010       -0.1358588171        0.6827768887
 C         -4.1951773205        0.7129023939        1.0113937081
 C         -4.1321256291        2.1299261637        0.4145427377
 C         -3.5297386385        2.2162338729       -0.9855357921
 H         -3.3735713976        3.2718996227       -1.2198676723
 H         -2.5487786689        1.7369830121       -0.9851195516
 C         -4.3930600186        1.6208724933       -2.0950586422
 H         -5.3298418482        2.1799107440       -2.1563072627
 H         -3.8599654782        1.7606241327       -3.0387885521
 C         -4.7311843399        0.1376120736       -1.9508856820
 H         -5.2087149598       -0.1801069562       -2.8826334921
 H         -5.4610270403       -0.0172364956       -1.1610112722
 C         -3.5259907207       -0.7767075373       -1.7516518813
 H         -3.8543519314       -1.8159901171       -1.8767959712
 H         -2.8078815902       -0.6030777581       -2.5611891011
 H         -5.1405999388        2.5463774845        0.4054089973
 H         -3.5200598489        2.7423789734        1.0781169878
 H         -5.0962363408        0.1948886346        0.6935540179
 H         -4.2308348908        0.7944591242        2.0999685980
 O         -2.1647753915       -0.2018289475        1.7635077290
 C         -1.0271864721       -0.9846073384        1.7646595596
 O         -0.3843285324       -0.9641703087        2.8353871698
 H          1.4091416591       -0.1393821407        0.3093791803
 C          1.8802523788       -0.8116605613       -0.3920586794
 C          1.5158755978       -2.1525422710       -0.3917398792
 C          2.1275871974       -3.0083887217       -1.2977576288
 C          3.0761725381       -2.5250232427       -2.1825771785
 C          3.4525817492       -1.1952402129       -2.1631593387
 C          2.8510959695       -0.3307439222       -1.2542018892
 N          3.2078861706        1.0241383875       -1.2072402294
 S          3.2598024807        1.8514789778        0.2470331904
 O          4.2187847816        2.9118594770        0.0162192005
 O          3.5416128096        0.9699221878        1.3544656108
 C          1.6463823813        2.5863474691        0.4003503197
 C          1.3054642224        3.5645143892       -0.5140343807
 C          0.0757971028        4.1904002302       -0.4008420113
 C         -0.7896500778        3.8296992511        0.6209186485
 C         -0.4379301189        2.8403461511        1.5253173289
 C          0.7935537806        2.2124264201        1.4187199395
 H          1.0929496897        1.4406434000        2.1127264298
 H         -1.1102417495        2.5431594718        2.3151979687
 H         -1.7417904075        4.3273626419        0.7153897780
 H         -0.2042727663        4.9580289202       -1.1039400016
 H          2.0143148628        3.8252877384       -1.2821786405
 H          3.9689155710        1.2854597367       -1.8167701692
 H          4.2038055697       -0.8240307637       -2.8436443986
 H          3.5386509978       -3.1976599432       -2.8890104582
 H          1.8605133966       -4.0520262715       -1.3157891086
 C          0.4976096170       -2.6027623799        0.6273030706
 H          0.9519245768       -2.4790513600        1.6223658107
 C          0.0677275960       -4.0460716596        0.4636713108
 C          0.8848517049       -5.1498707001        1.0623225513
 C         -0.4406839651       -4.7890973889        1.6609857908
 H         -1.2687568256       -5.4700158383        1.5332041206
 H         -0.4514578350       -4.2613885187        2.6040094606
 H          0.9655177943       -6.0829611903        0.5253473016
 H          1.7770195049       -4.8736776807        1.6041591916
 H         -0.4260067839       -4.2280024394       -0.4838900594
 O         -1.1962873818       -2.1538955491       -1.6493855602
