  62
        -98.93818358
 C          1.9147094311        0.1778832140        0.0314124772
 C          2.9867320439        0.9197670722        0.5811797213
 C          4.2767580270        0.2204352317        0.6976662682
 C          4.3676072625       -1.0618059583        0.3050510417
 C          5.5614317160       -1.9815377387        0.3720762611
 C          6.9254701587       -1.4047560450       -0.0307425382
 C          6.8793648639       -0.3420958606       -1.1383500399
 H          7.5933933321       -0.6117417788       -1.9188243201
 H          5.8891032417       -0.3219225399       -1.5967170425
 C          7.2384042573        1.0586708063       -0.6367460571
 H          8.0972714395        0.9808355954        0.0334586653
 H          7.5441285244        1.6692165783       -1.4898158993
 C          6.1135072740        1.8082250123        0.0760269419
 H          6.5298982316        2.7340922448        0.4800525849
 H          5.3427786730        2.0918407300       -0.6457436997
 C          5.4237510012        1.0401691356        1.2154173278
 H          4.9858991961        1.7738993723        1.8975782981
 H          6.1354748439        0.4329058648        1.7691483787
 H          7.4162144622       -0.9829338260        0.8452221943
 H          7.5382594723       -2.2461729349       -0.3587226305
 H          5.3101187909       -2.8188585029       -0.2834830438
 H          5.6271240223       -2.3788671057        1.3892141326
 O          3.3034809174       -1.7436396915       -0.2066471276
 C          2.0600129380       -1.1505040508       -0.3644440305
 O          1.1957966442       -1.9000232370       -0.8570568668
 O          2.8691148615        2.1124558254        0.9698706956
 C          0.5637125207        0.8551418022       -0.1250328600
 C         -0.4622726855        0.1120664394        0.6925478344
 C         -0.3020921678        0.0747460130        2.0765505674
 C         -1.1859523237       -0.6268865260        2.8715941042
 C         -2.2550725215       -1.2994613135        2.3045464138
 C         -2.4251174786       -1.2689450121        0.9261397173
 C         -1.5349902377       -0.5591203269        0.1292244142
 H         -1.6789724225       -0.5729341430       -0.9373431719
 N         -3.4862419910       -1.9670466476        0.3287937583
 S         -4.4079354126       -1.2844637989       -0.8844400868
 O         -5.5546994766       -2.1582502420       -0.9990157095
 O         -3.6233760122       -1.0998051644       -2.0776864231
 C         -4.9168419933        0.2913811636       -0.2220485353
 C         -6.0374427598        0.3322384588        0.5850723381
 C         -6.4097732231        1.5380668213        1.1561046554
 C         -5.6532486225        2.6758944349        0.9188896766
 C         -4.5308649630        2.6178207918        0.1074417861
 C         -4.1551449780        1.4151336652       -0.4704603156
 H         -3.2914101421        1.3339213823       -1.1090836377
 H         -3.9445052933        3.5035000232       -0.0784917734
 H         -5.9409497771        3.6142501673        1.3661761485
 H         -7.2849070844        1.5872246347        1.7838093287
 H         -6.6024078851       -0.5736080362        0.7342998733
 H         -4.0709455686       -2.4723279231        0.9781970204
 H         -2.9429886130       -1.8565104518        2.9223529842
 H         -1.0455650547       -0.6508575034        3.9417007371
 H          0.5370784501        0.5961055737        2.5164907919
 H          0.6920166839        1.8565399712        0.3109745208
 C          0.2061854286        1.0057608043       -1.5876874361
 C         -0.7170236361        2.1030275800       -2.0226478987
 C          0.7441917369        2.1799435654       -2.3471413017
 H          1.0563349961        2.0328094490       -3.3702673443
 H          1.3525547670        2.8868925750       -1.8019808270
 H         -1.4113809672        1.9031384176       -2.8255918252
 H         -1.0956640152        2.7660650567       -1.2592505112
 H          0.1558957190        0.0583659040       -2.1129910632
