  62
        -98.93904953
 C         -1.5015654066       -0.7536500574       -0.1323367784
 C         -2.7742365567       -1.3635554139       -0.1614835192
 C         -3.9146176270       -0.5502963023        0.3053646999
 C         -3.6802802893        0.7031334833        0.7373939725
 C         -4.6769808324        1.7223773290        1.2226885396
 C         -5.4741690601        2.3658137568        0.0769787881
 C         -5.9852629270        1.3883061118       -0.9779468742
 H         -6.4388574179        1.9742518104       -1.7817841199
 H         -5.1388273363        0.8498782675       -1.4080177957
 C         -7.0273589902        0.3864792885       -0.4863798586
 H         -7.8860246442        0.9294571433       -0.0849853136
 H         -7.3702388895       -0.1780357822       -1.3573772703
 C         -6.5486008139       -0.6144141420        0.5675988756
 H         -7.3013813762       -1.4058327506        0.6300344598
 H         -6.5014335792       -0.1567982678        1.5521472022
 C         -5.2246746045       -1.2981829053        0.2410772186
 H         -5.2804179799       -1.7242843028       -0.7672919832
 H         -5.1037637166       -2.1599680433        0.9088684972
 H         -4.8232452600        3.0857858196       -0.4248002187
 H         -6.3147174187        2.9133982788        0.5067314961
 H         -5.3436253043        1.2747920017        1.9537848978
 H         -4.1046179986        2.5028775130        1.7286771629
 O         -2.4298157587        1.2478520817        0.7534448113
 C         -1.3138958435        0.5493405536        0.3283974133
 O         -0.2442441806        1.1788925938        0.4102535844
 O         -2.9605375501       -2.5462814449       -0.5602308886
 C         -0.2915491430       -1.5340913622       -0.6088329221
 C          0.7528153801       -1.5923865920        0.4776328303
 C          0.3686011030       -1.9248553868        1.7746320562
 C          1.2950682335       -1.9639787522        2.7977112837
 C          2.6242220927       -1.6632587635        2.5543317968
 C          3.0213943041       -1.3485466244        1.2611758512
 C          2.0904313702       -1.3289526313        0.2307878444
 H          2.4312419132       -1.1079254399       -0.7657247324
 N          4.3616328944       -1.0597636360        0.9772337287
 S          4.7811873736       -0.0368731483       -0.2719252516
 O          4.6703337918       -0.7256624589       -1.5338773331
 O          6.1124030705        0.4135459894        0.0768410474
 C          3.6461645295        1.3373470088       -0.2199311266
 C          3.4890434300        2.0237632668        0.9666824816
 C          2.6225180852        3.1027824125        1.0054272066
 C          1.9338493880        3.4778954890       -0.1365792156
 C          2.1073594776        2.7827381375       -1.3216147517
 C          2.9699372530        1.7004222838       -1.3656975749
 H          3.1264721805        1.1265747621       -2.2658913776
 H          1.5648937225        3.0731257746       -2.2076849831
 H          1.2515334254        4.3122967440       -0.1015673667
 H          2.4789694567        3.6434059170        1.9271877684
 H          4.0397288817        1.7122906865        1.8396940676
 H          4.9640775551       -0.9560118384        1.7795228965
 H          3.3469147142       -1.6784134053        3.3556215331
 H          0.9798147581       -2.2201975335        3.7980804353
 H         -0.6719531191       -2.1454918404        1.9705690901
 H         -0.6530630309       -2.5553545016       -0.8015019357
 C          0.2284117130       -0.9446534039       -1.9034563817
 C          0.9477634626       -1.8071825504       -2.8955756311
 C         -0.4341334988       -1.3113404045       -3.1960476247
 H         -0.5578671690       -0.5467242308       -3.9482015862
 H         -1.2508445962       -2.0171105048       -3.1520815517
 H          1.7818605980       -1.3875291800       -3.4384579529
 H          1.0697714023       -2.8521198319       -2.6528328482
 H          0.5591617966        0.0815382595       -1.7831470520
