  62
        -98.94059198
 C         -2.2693348905       -1.0070636016       -0.3191447047
 C         -3.5992647500       -1.1544504788        0.1460944830
 C         -4.5657179032       -0.1700194027       -0.3515472421
 C         -4.1636899767        0.7816180626       -1.2134613255
 C         -5.0331181804        1.8473903559       -1.8236763101
 C         -5.2148707900        3.0849000324       -0.9340031925
 C         -6.1193202270        2.8831335007        0.2824696122
 H         -6.3309401428        3.8731091062        0.6913198989
 H         -7.0683802410        2.4538263711       -0.0398716824
 C         -5.5077739046        2.0128645597        1.3893816150
 H         -4.4272442058        1.9425307528        1.2424026582
 H         -5.6674717165        2.4912273616        2.3583232755
 C         -6.0886911943        0.6016199692        1.4801729167
 H         -5.5613361870        0.0649115112        2.2728225631
 H         -7.1440730557        0.6570445496        1.7555735012
 C         -5.9631120941       -0.2183171602        0.1891272961
 H         -6.6721945321        0.1412096702       -0.5558966700
 H         -6.1942869157       -1.2607779490        0.4205731185
 H         -4.2298799748        3.4247031653       -0.6049793987
 H         -5.6473061214        3.8723993761       -1.5555111757
 H         -6.0086320799        1.4284477735       -2.0715163535
 H         -4.5411947885        2.1569818408       -2.7482716048
 O         -2.8807464122        0.8764601684       -1.6547221773
 C         -1.8965289956        0.0094932665       -1.1984513528
 O         -0.7612735381        0.2452307765       -1.6554194672
 O         -3.9596136298       -2.0632356463        0.9408818239
 C         -1.2089239671       -1.9627328512        0.2016454258
 C         -0.2406593104       -1.1803395108        1.0542848789
 C         -0.7141120989       -0.6177708680        2.2381916566
 C          0.1132765753        0.1443248591        3.0382647496
 C          1.4283296706        0.3680298819        2.6687471547
 C          1.9133183415       -0.1935801492        1.4940298122
 C          1.0820628668       -0.9718126319        0.6981900351
 H          1.4766878468       -1.3842672595       -0.2142605283
 N          3.2620357962       -0.0119214456        1.1292435777
 S          3.6447199770        0.3686060963       -0.4731298837
 O          2.9686232897        1.5821288294       -0.8751897534
 O          3.4497926230       -0.7957552200       -1.2974557199
 C          5.3924083441        0.6817918639       -0.2913935818
 C          5.8527898020        1.9839941731       -0.2517221960
 C          7.2103168543        2.2113289011       -0.0872496740
 C          8.0793860624        1.1380679349        0.0368814604
 C          7.6025244024       -0.1638910495       -0.0046259201
 C          6.2467715563       -0.3977027554       -0.1701766456
 H          5.8312324153       -1.3906269804       -0.2170213604
 H          8.2816500071       -0.9957653577        0.0899457921
 H          9.1352669170        1.3174359472        0.1641886240
 H          7.5835644121        3.2223567037       -0.0576318810
 H          5.1401918225        2.7859098770       -0.3608145467
 H          3.7255742232        0.6485206856        1.7410936621
 H          2.0747743304        0.9725321911        3.2872815094
 H         -0.2676655235        0.5753929456        3.9519365474
 H         -1.7463945895       -0.7836389711        2.5151863673
 H         -1.7482336654       -2.6646266526        0.8544373429
 C         -0.5579153652       -2.7435372251       -0.9180339548
 C          0.1339585235       -4.0371247464       -0.6122068653
 C         -1.1677924631       -4.0406182128       -1.3543528635
 H         -1.1631882812       -4.2827288544       -2.4065211149
 H         -2.0530735423       -4.3741268412       -0.8327658354
 H          1.0374317955       -4.2751174923       -1.1527987460
 H          0.1328444078       -4.3709542934        0.4144150714
 H         -0.1327574806       -2.1094205764       -1.6880993878
