  62
        -98.93353565
 C          2.4963194270        1.2017200969        0.0267957846
 C          2.6080234234        0.0112827314       -0.7290736954
 C          3.9698011302       -0.5261834200       -0.8961598834
 C          5.0103142670        0.1265308139       -0.3507473144
 C          6.4756913382       -0.2227394533       -0.4235267702
 C          6.8606124272       -1.6954341619       -0.2204572621
 C          5.9480852980       -2.4821987941        0.7318589922
 H          6.5656362539       -2.9925325438        1.4733364607
 H          5.2897038919       -1.7989708272        1.2710889303
 C          5.1065500810       -3.5404948146        0.0142468698
 H          4.7804680664       -4.2846300491        0.7448064520
 H          5.7374770069       -4.0531927627       -0.7151160357
 C          3.8536156793       -3.0187169592       -0.6885550317
 H          3.1088131393       -2.7157860690        0.0527572271
 H          3.4188213124       -3.8434609273       -1.2583725016
 C          4.0737905663       -1.8284489001       -1.6363142634
 H          5.0179449849       -1.9160135784       -2.1683691083
 H          3.2595315120       -1.8259758083       -2.3660855198
 H          7.8816607972       -1.7040814337        0.1645112523
 H          6.8850291465       -2.2012970837       -1.1846216204
 H          6.9514356681        0.3900241582        0.3457433058
 H          6.8592802593        0.1176166516       -1.3895733042
 O          4.8554697375        1.2800621502        0.3602104156
 C          3.6077385175        1.8373707911        0.5766089061
 O          3.6197118408        2.8776113800        1.2661257446
 O          1.6232241577       -0.5766690817       -1.2470204800
 C          1.1310759934        1.8179629053        0.2722456639
 C          0.2331177708        0.8114016788        0.9499579491
 C          0.6815892152        0.1992073714        2.1183459028
 C         -0.1005012344       -0.7314395407        2.7732893500
 C         -1.3511441903       -1.0649533159        2.2833777139
 C         -1.8077705676       -0.4612439132        1.1180644935
 C         -1.0187626900        0.4748142738        0.4624329942
 H         -1.3990027844        0.9277475944       -0.4374008624
 N         -3.0572013502       -0.8089206069        0.5815630073
 S         -3.9523584874        0.3441522676       -0.2613623692
 O         -3.4495118004        0.4456750175       -1.6079060185
 O         -4.0140872610        1.5764827959        0.4926757012
 C         -5.5474110292       -0.4534766730       -0.2778342845
 C         -5.7493739632       -1.4992296259       -1.1591872882
 C         -6.9752680702       -2.1450864347       -1.1622941345
 C         -7.9735198980       -1.7368984549       -0.2897251512
 C         -7.7570631496       -0.6845406240        0.5868893058
 C         -6.5321773259       -0.0354278088        0.5967574983
 H         -6.3201291369        0.7911298597        1.2556789735
 H         -8.5362842862       -0.3674200083        1.2611091839
 H         -8.9270933630       -2.2408360056       -0.2954217434
 H         -7.1481646090       -2.9619662150       -1.8442458410
 H         -4.9475905101       -1.7748817845       -1.8244566493
 H         -3.6331198491       -1.3323009310        1.2264061528
 H         -1.9628290134       -1.7935394797        2.7933688263
 H          0.2629043197       -1.1984769258        3.6765416191
 H          1.6582852216        0.4641830773        2.5019405649
 H          1.2935135183        2.6533460881        0.9697543393
 C          0.5606968644        2.3679700061       -1.0175922907
 C         -0.4419283153        3.4805081347       -0.9805032405
 C          0.9524257920        3.7433765355       -1.4628310160
 H          1.1098281173        3.9191429498       -2.5163484906
 H          1.6198890480        4.3003203265       -0.8211812183
 H         -1.2480202454        3.4702699725       -1.6992435657
 H         -0.7283099354        3.8626218118       -0.0119374860
 H          0.4474752153        1.6078794603       -1.7828246321
