  62
        -98.94379753
 C         -1.6379986736       -1.4262150021        0.4002246862
 C         -1.7662878838       -0.1820302760        1.0737434451
 C         -3.0389955845        0.5253025403        0.9014769563
 C         -4.0183988334       -0.0375916381        0.1714999705
 C         -5.3934254188        0.5295892093       -0.0567277178
 C         -5.4724614394        1.5438773686       -1.2057899290
 C         -4.8280112644        2.9006491531       -0.9196637481
 H         -5.1431415731        3.5790104076       -1.7150274603
 H         -5.2185642863        3.2960529752        0.0185200925
 C         -3.2939977274        2.8720979436       -0.8720358137
 H         -2.9322285992        1.9543169376       -1.3414655016
 H         -2.8966790648        3.7060959845       -1.4544936514
 C         -2.6980869855        2.9754741254        0.5319799427
 H         -1.6127548092        2.8907897837        0.4442422322
 H         -2.9330989988        3.9527883031        0.9593231471
 C         -3.1774311318        1.8901681560        1.5046331559
 H         -4.2106749847        2.0744862528        1.7984631639
 H         -2.5486926332        1.9237278947        2.3977416918
 H         -5.0138870895        1.1023470600       -2.0936186464
 H         -6.5306110536        1.7058437652       -1.4242276481
 H         -6.0410467505       -0.3158581919       -0.2991427393
 H         -5.7552228943        0.9909652360        0.8627757852
 O         -3.8673462023       -1.2395292528       -0.4409098145
 C         -2.6722859811       -1.9456283040       -0.3788641596
 O         -2.6888417341       -2.9954748304       -1.0516094777
 O         -0.8592827536        0.3081049423        1.7967747351
 C         -0.3129936025       -2.1477196084        0.5722178551
 C          0.6403840027       -1.8422674466       -0.5586715016
 C          0.3125607768       -2.1243210271       -1.8807034867
 C          1.2110280858       -1.8495943336       -2.8951378808
 C          2.4450291573       -1.2893709768       -2.6145908849
 C          2.7847090561       -1.0088309134       -1.2958977152
 C          1.8799674448       -1.2857212822       -0.2795164996
 H          2.1566929215       -1.0715760937        0.7408279115
 N          4.0413844180       -0.4762023870       -0.9871282395
 S          4.3083921226        0.4970261980        0.3401898073
 O          5.6027465196        1.0891298629        0.0801603789
 O          4.1999465749       -0.2744352947        1.5526462145
 C          3.0568034558        1.7651933446        0.2845994050
 C          3.0815162130        2.6474240550       -0.7787807941
 C          2.1299755648        3.6512400311       -0.8388723153
 C          1.1755593137        3.7583600972        0.1622335801
 C          1.1666307821        2.8680383763        1.2239272214
 C          2.1141079056        1.8587862967        1.2862303451
 H          2.1234221850        1.1477143134        2.0960254498
 H          0.4213993101        2.9358682904        1.9999392423
 H          0.4363559663        4.5430943711        0.1161024053
 H          2.1340406560        4.3478983363       -1.6617500392
 H          3.8494138022        2.5464719914       -1.5284029009
 H          4.6088029784       -0.2147979307       -1.7788961549
 H          3.1448579960       -1.0788935011       -3.4086119373
 H          0.9470266996       -2.0729217219       -3.9178909080
 H         -0.6498116407       -2.5598524387       -2.1021244361
 H          0.1242853656       -1.7301465437        1.4899470133
 C         -0.4451263358       -3.6477674314        0.7510127244
 C          0.6746322101       -4.3980436116        1.4049750968
 C         -0.6256036767       -4.2109643642        2.1269383969
 H         -1.2756410099       -5.0637555393        2.2527631306
 H         -0.6540243364       -3.5153853641        2.9532429820
 H          0.9200620225       -5.3816044940        1.0347621227
 H          1.5297976360       -3.8303266255        1.7413554674
 H         -0.9727751777       -4.1341416847       -0.0587559622
