  62
        -98.93829764
 C          1.9345549139       -1.1193245310        0.1854642197
 C          2.3692263538        0.0683609091        0.8171019502
 C          3.8235838667        0.3170437465        0.8075152226
 C          4.6377063936       -0.5778215731        0.2215848871
 C          6.1300748464       -0.4905445650        0.0581570266
 C          6.4927761152        0.1366151968       -1.2986970660
 C          6.5720234282        1.6627138286       -1.3029166177
 H          7.4586500616        1.9773278535       -0.7484528178
 H          6.7053888313        1.9783882569       -2.3401847477
 C          5.3522998950        2.3837020478       -0.7230376310
 H          5.3535145677        3.4057378846       -1.1069868501
 H          4.4370516206        1.9069158167       -1.0789889637
 C          5.3526415597        2.4306641056        0.8121606024
 H          6.3360637512        2.1356743157        1.1778630303
 H          5.1957245851        3.4596222210        1.1425875265
 C          4.2713903718        1.5789464281        1.4932566924
 H          3.3570839096        2.1712033517        1.6029628234
 H          4.6013900239        1.3268859046        2.5068558932
 H          7.4620479546       -0.2526531657       -1.6167053848
 H          5.7512713046       -0.1955985712       -2.0297017531
 H          6.5763545859        0.0621366635        0.8794228950
 H          6.5053082219       -1.5158320170        0.0785788786
 O          4.1743080822       -1.7106394609       -0.3756163015
 C          2.8255785043       -2.0082148067       -0.4153730747
 O          2.5473097200       -3.0717010006       -1.0053542781
 O          1.5864690434        0.8902519618        1.3625058065
 C          0.4561579952       -1.4683451121        0.1443994400
 C         -0.2983768422       -0.3689745293       -0.5619932508
 C          0.0502345993       -0.0723264053       -1.8782205353
 C         -0.5813288759        0.9455609477       -2.5644502056
 C         -1.5812048898        1.6845812851       -1.9556230928
 C         -1.9384410306        1.3967103428       -0.6442605779
 C         -1.3033645307        0.3683447039        0.0418710313
 H         -1.5851531113        0.1836401448        1.0640625444
 N         -2.9288387954        2.1533909066       -0.0002864717
 S         -4.0900064919        1.4447458442        0.9669750696
 O         -5.0770249450        2.4839940630        1.1599804156
 O         -3.4952162178        0.8990870754        2.1593937275
 C         -4.7776188864        0.1421299712       -0.0383508723
 C         -4.2887698664       -1.1430755522        0.0778491242
 C         -4.7968816932       -2.1291247519       -0.7534138730
 C         -5.7777729411       -1.8151254105       -1.6811559785
 C         -6.2607341994       -0.5191092333       -1.7833584471
 C         -5.7544327987        0.4715547620       -0.9582278048
 H         -6.1103453870        1.4883347288       -0.9965532397
 H         -7.0273012995       -0.2792276291       -2.5024671487
 H         -6.1699069767       -2.5861951158       -2.3253973913
 H         -4.4240633442       -3.1377850840       -0.6724859560
 H         -3.5301104804       -1.3520294290        0.8135012096
 H         -3.3307362982        2.8856168324       -0.5667986747
 H         -2.0698962034        2.4876008940       -2.4861656493
 H         -0.2957581876        1.1669303623       -3.5818112461
 H          0.8356322003       -0.6482963504       -2.3493232955
 H          0.3807963324       -2.3809654751       -0.4642839886
 C         -0.0495928565       -1.7724525245        1.5381738353
 C         -1.2064198989       -2.7048477746        1.7293800194
 C          0.1774301866       -3.1397975280        2.1065891077
 H          0.4258614080       -3.2280867003        3.1535953675
 H          0.6772607250       -3.8615200251        1.4766797794
 H         -1.9117344977       -2.4948600577        2.5201857656
 H         -1.6439704943       -3.1430003389        0.8448068985
 H          0.0471863681       -0.9325258561        2.2166879544
