  62
        -98.94113593
 C         -1.9496569487       -0.8966140885       -0.2157694012
 C         -2.6055915139       -0.3337422259        0.9099457557
 C         -2.9588944432        1.0873552437        0.8261328721
 C         -2.6077829933        1.7825151780       -0.2704425065
 C         -2.9331920874        3.2280014887       -0.5113241165
 C         -4.2693616939        3.3828725345       -1.2513871929
 C         -5.4122493441        2.5743350330       -0.6372809453
 H         -6.3096268705        2.7834370096       -1.2234878538
 H         -5.1943545660        1.5098874182       -0.7503033021
 C         -5.6838324221        2.8815864495        0.8419725416
 H         -6.7615990555        2.9809769990        0.9864992263
 H         -5.2307023210        3.8363068865        1.1108345593
 C         -5.2020864553        1.8017631493        1.8126314040
 H         -5.6332755715        2.0108385263        2.7951514633
 H         -5.5765908424        0.8267932651        1.4911600496
 C         -3.6824098949        1.6964766406        1.9944311633
 H         -3.2696974273        2.6793466216        2.2313866100
 H         -3.4928830109        1.0309884254        2.8417077040
 H         -4.1319474009        3.0529011072       -2.2837174266
 H         -4.5352799422        4.4414099897       -1.2649533773
 H         -2.9710664013        3.7481086435        0.4440372177
 H         -2.1358561081        3.6608344832       -1.1182039723
 O         -1.9531603817        1.2231640526       -1.3175676540
 C         -1.6066942155       -0.1224252911       -1.3250114466
 O         -1.0260121549       -0.4736842403       -2.3713950385
 H          0.7444456507       -1.1370895340       -0.8181117417
 C          0.8690100049       -1.8004808932        0.0248106465
 C         -0.2113671103       -2.5185211937        0.5169410090
 C         -0.0120487398       -3.3717695207        1.5961032687
 C          1.2370676190       -3.4918696836        2.1781122124
 C          2.3035705821       -2.7478064360        1.7085387716
 C          2.1154847580       -1.8958171716        0.6254732612
 N          3.1781065809       -1.1309337261        0.1197131808
 S          2.8418360965        0.4370047140       -0.4176207842
 O          1.8279800143        1.0403771509        0.4184303812
 O          2.5836308620        0.3974170804       -1.8343415110
 C          4.4223819715        1.2143907723       -0.1284433492
 C          4.6303263452        1.9067216620        1.0494708983
 C          5.8727140596        2.4755699769        1.2828729565
 C          6.8819311527        2.3396954616        0.3414672739
 C          6.6583582427        1.6422529730       -0.8364721861
 C          5.4182438434        1.0719301908       -1.0764370972
 H          5.1932293440        0.5287433192       -1.9795024382
 H          7.4440133166        1.5410528562       -1.5675892852
 H          7.8477616264        2.7827836584        0.5257371288
 H          6.0477186957        3.0211103204        2.1960937187
 H          3.8128750981        1.9924648841        1.7474634805
 H          3.9989046423       -1.1562628391        0.7096111328
 H          3.2745416340       -2.8225020938        2.1740799068
 H          1.3774091030       -4.1563365464        3.0169878080
 H         -0.8499729784       -3.9266596349        1.9910514618
 C         -1.5813869351       -2.3657359171       -0.1024953998
 H         -2.3095470899       -2.7944087984        0.6009544477
 C         -1.6586530774       -3.1422092035       -1.4015113506
 C         -1.8847683324       -4.6227203092       -1.3527968923
 C         -2.9719381116       -3.7138600773       -1.8405039003
 H         -3.2090379553       -3.7030878197       -2.8935301725
 H         -3.8259430903       -3.5501578382       -1.1993437713
 H         -2.0060223324       -5.0800987082       -0.3827889046
 H         -1.3720740913       -5.2429168289       -2.0716072125
 H         -1.0016142565       -2.7561933651       -2.1700227690
 O         -2.8925741337       -1.0023307214        1.9404583405
