  62
        -98.94474776
 C         -1.9892513592       -0.3956717900       -0.1163812279
 C         -2.9946612269       -0.7033971284        0.8379949891
 C         -4.1792536285        0.1632079148        0.8420862826
 C         -4.2371076603        1.1977433555       -0.0158929876
 C         -5.4008747142        2.1349173269       -0.1540859286
 C         -6.3944296560        1.6351185915       -1.2122547199
 C         -6.7863253732        0.1667958256       -1.0467035541
 H         -7.5130947009       -0.0656289291       -1.8280950045
 H         -5.9091030201       -0.4585482660       -1.2275255079
 C         -7.3814606722       -0.1808036724        0.3249363450
 H         -7.7120602686        0.7292689000        0.8268363574
 H         -8.2636423241       -0.8068559128        0.1753607857
 C         -6.4377080370       -0.9540984216        1.2478377974
 H         -7.0222391668       -1.3342316030        2.0898444698
 H         -6.0313110915       -1.8177492618        0.7155596109
 C         -5.2672432952       -0.1514463951        1.8299049468
 H         -5.6427047570        0.7633266863        2.2931990907
 H         -4.7986168584       -0.7624234254        2.6068586504
 H         -7.2884699958        2.2597862889       -1.1682366068
 H         -5.9413375574        1.7596374500       -2.1985542875
 H         -5.8979528476        2.2324556679        0.8091805299
 H         -5.0214450598        3.1122796183       -0.4572372919
 O         -3.2460644681        1.4792604483       -0.8970344142
 C         -2.1040725677        0.6946258361       -0.9787452695
 O         -1.3003692146        1.0800348304       -1.8511407401
 O         -2.9041967803       -1.6645581360        1.6469769469
 C         -0.7596777256       -1.2898685612       -0.1339602653
 C          0.3935476727       -0.5887146825        0.5423330189
 C          0.7231638987       -0.8898197410        1.8593886824
 C          1.7739709498       -0.2468998532        2.4897382674
 C          2.5178579665        0.7072878774        1.8192981204
 C          2.1906259377        1.0196156997        0.5058630570
 C          1.1425951210        0.3677766777       -0.1280641162
 H          0.8816110394        0.6330128773       -1.1409629324
 N          2.9484221121        1.9832487346       -0.1839861525
 S          4.6112544304        1.7929030418       -0.1458321614
 O          5.1344619412        2.3653405776        1.0700911650
 O          5.0979791507        2.3773674990       -1.3759120937
 C          4.8700120562        0.0266922070       -0.1379663829
 C          4.3810510868       -0.7080753649       -1.2001668315
 C          4.5325670872       -2.0846859772       -1.1880222723
 C          5.1659641276       -2.7006739758       -0.1194425584
 C          5.6556676163       -1.9487211522        0.9367549987
 C          5.5046317260       -0.5711786202        0.9314187972
 H          5.8648841938        0.0514184670        1.7340470499
 H          6.1491928068       -2.4300873105        1.7655899541
 H          5.2777350193       -3.7733848576       -0.1120139274
 H          4.1517375719       -2.6721350183       -2.0079033717
 H          3.8956346296       -0.2000551120       -2.0180929333
 H          2.6179800610        2.1579281311       -1.1218716778
 H          3.3385977512        1.2218812970        2.2925495242
 H          2.0173152342       -0.4911056712        3.5124056057
 H          0.1370603118       -1.6258246560        2.3905243761
 H         -1.0298048773       -2.1562823170        0.4840937676
 C         -0.3969206354       -1.7800667185       -1.5220735344
 C          0.5984442403       -2.8919293675       -1.6598955430
 C         -0.8481995470       -3.1387232721       -1.9629547847
 H         -1.1458090406       -3.2731829487       -2.9922477063
 H         -1.4238369521       -3.7267393966       -1.2631757318
 H          1.2948891992       -2.8573553506       -2.4832677301
 H          1.0071085884       -3.3095733437       -0.7524512141
 H         -0.3853575947       -0.9977535338       -2.2697501028
