  62
        -98.93753632
 C          2.0649564738        0.8986587705        0.5339354624
 C          2.0142802026        0.1410570361       -0.6601643823
 C          2.0803797030       -1.3191515227       -0.5023147940
 C          2.1369100309       -1.8427190754        0.7354213730
 C          2.2574751835       -3.3050404108        1.0600788251
 C          3.7039540552       -3.7856931966        0.8252141657
 C          3.8528545798       -4.8080306117       -0.3016209382
 H          4.9192203602       -4.9066556951       -0.5147993832
 H          3.4946546960       -5.7777715222        0.0498232278
 C          3.1128317888       -4.4776714084       -1.6011216230
 H          3.5153067262       -5.1367508032       -2.3732131050
 H          2.0561238030       -4.7279766303       -1.4963185630
 C          3.2247064165       -3.0260715653       -2.0845096721
 H          3.3237758589       -3.0365028748       -3.1717824449
 H          4.1245455441       -2.5562414848       -1.6872680942
 C          2.0051420120       -2.1442315458       -1.7569230123
 H          1.8738272067       -1.4126215207       -2.5600022364
 H          1.0991770400       -2.7567502016       -1.7275340152
 H          4.0925487032       -4.2286701299        1.7433628647
 H          4.3225088887       -2.9118309009        0.6109650443
 H          1.5579681642       -3.8705540087        0.4480477420
 H          1.9793740734       -3.4268825395        2.1073915010
 O          2.1682755947       -1.0812311896        1.8615986316
 C          2.1169090803        0.3008890759        1.7907163478
 O          2.1307732662        0.8758536361        2.8999389153
 O          1.9208658121        0.6607441931       -1.8038388904
 C          1.9378807057        2.4103644875        0.4701514741
 C          0.6378418485        2.7617770219       -0.2137146121
 C          0.5187148710        3.7493782400       -1.1824553754
 C         -0.7001597387        3.9804893703       -1.7973008475
 C         -1.8142556769        3.2297491827       -1.4717813639
 C         -1.7094003136        2.2536509520       -0.4863255736
 C         -0.4965831333        2.0454085339        0.1468252116
 H         -0.4269059603        1.2833970581        0.9109031820
 N         -2.8238588962        1.4841156010       -0.1075985955
 S         -2.5657801705       -0.1100739303        0.3870756857
 O         -2.1991713749       -0.1095567984        1.7824265883
 O         -1.6628330393       -0.7858294005       -0.5170112855
 C         -4.2188876850       -0.7562182242        0.2062125313
 C         -4.5630540581       -1.4202219199       -0.9561139440
 C         -5.8607360170       -1.8845768190       -1.1040375925
 C         -6.7880874049       -1.6747946822       -0.0944528460
 C         -6.4277559203       -1.0075149180        1.0669500579
 C         -5.1316828640       -0.5416793560        1.2215682529
 H         -4.8012881959       -0.0257178055        2.1080083262
 H         -7.1502861775       -0.8484906263        1.8510200307
 H         -7.7973077315       -2.0362175549       -0.2124689625
 H         -6.1423989611       -2.4066678595       -2.0042057148
 H         -3.8053421413       -1.5663425906       -1.7094044282
 H         -3.5850082919        1.5456814256       -0.7704769076
 H         -2.7563844434        3.3935489170       -1.9723308265
 H         -0.7781987430        4.7446901686       -2.5557122169
 H          1.3827961877        4.3268872092       -1.4675899714
 H          1.8838636812        2.7565976746        1.5132979758
 C          3.1552533817        3.0234728931       -0.1894971802
 C          3.6082711431        4.4004770977        0.1900754739
 C          4.4011028185        3.2049382655        0.6226099495
 H          5.3547328724        3.0176925485        0.1525004387
 H          4.3604319695        2.9087469400        1.6610253762
 H          4.0229160649        5.0366630216       -0.5771858654
 H          3.0364190317        4.9254579367        0.9402496401
 H          3.2698193459        2.7082986612       -1.2201847626
