  62
        -98.94131700
 C         -2.2609256769       -0.6673133462       -0.3222073599
 C         -3.4926609783       -0.9508126300        0.3190803111
 C         -4.2830847939        0.2112845520        0.7435374107
 C         -3.7896317485        1.4476708326        0.5474937688
 C         -4.5072989660        2.7206188249        0.8892414768
 C         -5.3406820281        3.2252481908       -0.2973318985
 C         -6.2294000084        2.1536463298       -0.9289064669
 H         -6.7915806773        2.6311663468       -1.7342789046
 H         -5.5963172553        1.3904539503       -1.3871441464
 C         -7.2053581554        1.4821177300        0.0472499928
 H         -7.3178744227        2.0973043476        0.9406928427
 H         -8.1866055600        1.4174170747       -0.4275541977
 C         -6.8145162885        0.0610194380        0.4570171947
 H         -6.6100143791       -0.5346433897       -0.4361181208
 H         -7.6690678843       -0.3936585033        0.9650477646
 C         -5.6093596763       -0.0538906125        1.3989942275
 H         -5.7511660396        0.6019061025        2.2604875038
 H         -5.5644428663       -1.0864423850        1.7575245157
 H         -5.9581836784        4.0577231629        0.0448091318
 H         -4.6587283904        3.6002569026       -1.0639598480
 H         -5.1493757054        2.5488828373        1.7510324268
 H         -3.7627862340        3.4756907683        1.1474564249
 O         -2.5860008338        1.6803538782       -0.0344050758
 C         -1.7935362091        0.6362331771       -0.4902328177
 O         -0.7265404651        1.0038128243       -1.0186541626
 H          1.1450851824       -0.9634783695       -1.3288656119
 C          1.0485772731       -1.3720043466       -0.3354595417
 C         -0.1706803801       -1.8774849849        0.0851818978
 C         -0.2763354339       -2.3717786878        1.3827752693
 C          0.8124893625       -2.3591849425        2.2331850370
 C          2.0287062187       -1.8499296724        1.8111268100
 C          2.1413139438       -1.3466414823        0.5227612622
 N          3.3745107683       -0.8303065752        0.0750634895
 S          4.1950883163        0.2129397013        1.1211445257
 O          4.8566003463       -0.5803704032        2.1276105259
 O          3.3046157786        1.2402841881        1.6150582211
 C          5.4064618613        0.9091012149        0.0153174522
 C          6.6205611122        0.2675009324       -0.1385666720
 C          7.5492422160        0.7950134651       -1.0216168902
 C          7.2495018481        1.9474306561       -1.7325966527
 C          6.0267190321        2.5807015636       -1.5668403893
 C          5.0928278925        2.0579100180       -0.6860939562
 H          4.1330701146        2.5220388340       -0.5203576261
 H          5.7965923386        3.4778329673       -2.1188739325
 H          7.9736064675        2.3572084313       -2.4189257700
 H          8.5017429478        0.3073009740       -1.1519022739
 H          6.8106694972       -0.6202947274        0.4414236159
 H          3.2776636937       -0.3954324658       -0.8334713464
 H          2.8819097671       -1.8189521955        2.4690876494
 H          0.7159891325       -2.7446216630        3.2373156203
 H         -1.2310287876       -2.7516742604        1.7198837557
 C         -1.4052818932       -1.8372467274       -0.7806350678
 H         -2.0013136250       -2.7343830919       -0.5651056739
 C         -1.1205995334       -1.7853800005       -2.2664474700
 C         -0.6010228328       -3.0094957668       -2.9576446130
 C         -2.0040403902       -2.5465324605       -3.2071145373
 H         -2.2397768638       -2.1036096204       -4.1631828961
 H         -2.8152056182       -3.1169416637       -2.7789850636
 H         -0.4579985015       -3.8948718197       -2.3569781554
 H          0.1277617733       -2.8885304602       -3.7443649806
 H         -0.7604189197       -0.8197751245       -2.6003262735
 O         -3.9110753772       -2.1215475717        0.5240157854
