  62
        -98.93738342
 C          1.8447159404        0.7451194397        0.7517612905
 C          2.1977474506        0.4366519906       -0.5823000297
 C          3.6367849607        0.4836808307       -0.9014454494
 C          4.5099093006        0.8295864401        0.0605375009
 C          6.0092259306        0.8845520901       -0.0413731688
 C          6.6334395705       -0.4409880802        0.4268459304
 C          6.7630251306       -1.5100480895       -0.6575045002
 H          7.5463791807       -1.2154156691       -1.3590150499
 H          7.0910004405       -2.4304603499       -0.1687300208
 C          5.4842300307       -1.8014303590       -1.4474529406
 H          4.6321606506       -1.8477203694       -0.7667338108
 H          5.5889737807       -2.7895669987       -1.8998410212
 C          5.2118923709       -0.7741927982       -2.5564496400
 H          6.1060300110       -0.1696479682       -2.7080448995
 H          5.0301608610       -1.2987854276       -3.4967253804
 C          4.0019505709        0.1426061216       -2.3203837696
 H          4.1468744310        1.0742568220       -2.8772560790
 H          3.1026053710       -0.3288938081       -2.7290436100
 H          6.0266652503       -0.8239259907        1.2516032901
 H          7.6306347704       -0.2388222305        0.8231169907
 H          6.3187382507        1.1295109507       -1.0529401786
 H          6.3381243505        1.6800145797        0.6305651318
 O          4.1225792204        1.1369499193        1.3299619011
 C          2.7943400603        1.0935101491        1.7105746508
 O          2.5886932501        1.3781662183        2.9084671810
 H         -2.1290221995        0.0700437802        0.2659399394
 C         -1.5169422096       -0.7972938299        0.4491651889
 C         -0.2154614296       -0.6509597003        0.9044874292
 C          0.5362188503       -1.7974569805        1.1477524386
 C          0.0088688803       -3.0522999003        0.9148667677
 C         -1.2897127596       -3.1934210200        0.4583653074
 C         -2.0565761196       -2.0580652898        0.2317315280
 N         -3.3747920795       -2.1651112794       -0.2352686622
 S         -4.5636946596       -1.1651433198        0.3849834082
 O         -4.3148511898       -0.8343879207        1.7687166685
 O         -5.8034780595       -1.8625711496        0.1142475376
 C         -4.5083549794        0.3037748909       -0.6193147608
 C         -4.8069648594        1.5184642605       -0.0344054101
 C         -4.8186086092        2.6589002210       -0.8226096693
 C         -4.5319255490        2.5648223019       -2.1756067894
 C         -4.2349890890        1.3369720222       -2.7476938601
 C         -4.2272705791        0.1923418317       -1.9665791008
 H         -3.9971877391       -0.7755990580       -2.3794092314
 H         -4.0085872888        1.2681353829       -3.7995939001
 H         -4.5381296889        3.4535757823       -2.7868035788
 H         -5.0490965193        3.6143247407       -0.3783466888
 H         -5.0109701796        1.5485130798        1.0240725299
 H         -3.7088900695       -3.1104058993       -0.3542019429
 H         -1.7051873197       -4.1735256398        0.2792073767
 H          0.6104767602       -3.9301412404        1.0977693273
 H          1.5477926002       -1.6909838307        1.5161134088
 C          0.3886990404        0.7061873495        1.1745737302
 H          0.3819081202        0.8668473588        2.2634683803
 C         -0.3683096795        1.8395303500        0.5116086308
 C         -1.5257888096        2.4916148796        1.2043466311
 C         -0.2256066295        3.2236452496        1.0668780717
 H         -0.1703282294        4.0529438001        0.3781028523
 H          0.3931924704        3.3421800890        1.9447184319
 H         -1.8012881997        2.1184342590        2.1796575108
 H         -2.3628229595        2.8192326500        0.6062440211
 H         -0.4106781693        1.7328112407       -0.5663939092
 O          1.3556113908        0.1276947712       -1.4650682300
