  62
        -98.94393161
 C         -2.6513801100       -1.2581072300        0.2195202203
 C         -2.6442191298       -0.2639745904       -0.7879528600
 C         -3.8167661398        0.6225502396       -0.8172099305
 C         -4.8173566299        0.4235434700        0.0602834394
 C         -6.0437440199        1.2811510201        0.1726460090
 C         -5.8366837700        2.4131629305        1.1885601086
 C         -4.5371418999        3.1928668903        0.9875958884
 H         -4.5130050400        3.9844627006        1.7396382981
 H         -3.6891558400        2.5337870804        1.1880066188
 C         -4.3765091697        3.8101486898       -0.4086761218
 H         -4.0169396597        4.8354091798       -0.2988104421
 H         -5.3456286997        3.8583429797       -0.9066429419
 C         -3.3783635296        3.0846066894       -1.3134494314
 H         -3.1791378795        3.7217655691       -2.1794369616
 H         -2.4309883497        2.9506473296       -0.7841154412
 C         -3.8293227196        1.7181730793       -1.8454896409
 H         -4.8161320896        1.8086304891       -2.3041653511
 H         -3.1173814595        1.4122144389       -2.6178962407
 H         -6.6861039699        3.0953844505        1.1233043282
 H         -5.8242225301        1.9802210208        2.1914111987
 H         -6.8726759599        0.6539628702        0.5048223891
 H         -6.2826084897        1.6947439297       -0.8050547412
 O         -4.8026021300       -0.5652602896        0.9902206698
 C         -3.7151078801       -1.4146700696        1.1081464803
 O         -3.8123166502       -2.2537619493        2.0259798206
 O         -1.7103121897       -0.1232765807       -1.6213797100
 C         -1.4692180200       -2.2008075800        0.3614198208
 C         -0.2102612900       -1.3949759100        0.5705695907
 C         -0.1723637901       -0.4806545596        1.6209791403
 C          0.9472148099        0.2969197705        1.8409240502
 C          2.0573501200        0.1802337701        1.0213574403
 C          2.0291594301       -0.7238601603       -0.0302646693
 C          0.9036543301       -1.5126528403       -0.2430334592
 H          0.8987603601       -2.2088681206       -1.0668840089
 N          3.1523645202       -0.8695757906       -0.8569918091
 S          4.0498898203        0.4697197192       -1.3093835095
 O          3.2372284003        1.6574822692       -1.4287140901
 O          4.7570555204        0.0535709787       -2.5011896893
 C          5.2215832301        0.6613891396        0.0193006505
 C          5.8957725600       -0.4567697802        0.4697431310
 C          6.8216154099       -0.3135268399        1.4907807311
 C          7.0608283799        0.9382668003        2.0379400106
 C          6.3791772200        2.0517995102        1.5718888002
 C          5.4500183901        1.9148802998        0.5522457401
 H          4.8906523802        2.7514491197        0.1642054597
 H          6.5662648600        3.0245654303        1.9976609498
 H          7.7822782098        1.0468410406        2.8323297907
 H          7.3528031998       -1.1773823597        1.8567552115
 H          5.6831778800       -1.4119284004        0.0196431114
 H          3.0169612502       -1.5019498209       -1.6321057889
 H          2.9283046500        0.7947012202        1.1799686302
 H          0.9587474198        1.0037938508        2.6569292499
 H         -1.0419782602       -0.3838978693        2.2574921902
 H         -1.6551020701       -2.7872285496        1.2726270510
 C         -1.4099567399       -3.1458023504       -0.8202238988
 C         -0.7495795000       -4.4838756504       -0.6813625382
 C         -2.2412177400       -4.3916760404       -0.7910752984
 H         -2.7140811899       -4.7171205707       -1.7055932684
 H         -2.8347466401       -4.5699503300        0.0937810016
 H         -0.1993413899       -4.8787554607       -1.5222910080
 H         -0.3272631501       -4.7344583801        0.2798572319
 H         -1.3254432198       -2.6258285908       -1.7679974990
