  62
        -98.93998393
 C         -0.8310013498       -1.4746958601        0.7432370479
 C         -1.7467855900       -1.5424543613       -0.3302702416
 C         -2.8724294469       -0.5854109541       -0.3030420261
 C         -2.9271848103        0.3249308986        0.6866845342
 C         -3.9739605210        1.3841125778        0.9122185186
 C         -3.8637586034        2.5838199998       -0.0460368136
 C         -3.4712366565        2.2380144540       -1.4801199339
 H         -3.2480544990        3.1724278734       -2.0017478200
 H         -2.5559731493        1.6431559179       -1.4691368854
 C         -4.5463321952        1.5083565272       -2.2810772479
 H         -4.1543464973        1.3423648911       -3.2877869685
 H         -5.4251996838        2.1516094464       -2.3687125471
 C         -4.9907756436        0.1620337274       -1.7116211067
 H         -5.6035529880        0.3002094453       -0.8251334155
 H         -5.6292025544       -0.3154718635       -2.4609221858
 C         -3.8526248130       -0.8136099335       -1.4283167004
 H         -4.2835055772       -1.8060842490       -1.2465701712
 H         -3.2447803059       -0.9261192084       -2.3332948096
 H         -4.8180745386        3.1130107516       -0.0473098722
 H         -3.1044157028        3.2592800939        0.3493074818
 H         -3.8378622333        1.7418643363        1.9349146270
 H         -4.9598042365        0.9297715461        0.8537688234
 O         -1.9730217008        0.4025874446        1.6592434894
 C         -0.9244324581       -0.4922464909        1.7282707208
 O         -0.1537268877       -0.3162916295        2.6937913148
 O         -1.6492045231       -2.3713082357       -1.2731187411
 C          0.3381232662       -2.4423328728        0.8166840512
 C          1.2602901801       -2.1765256733       -0.3485275963
 C          1.6174690264       -3.1259618628       -1.2955434125
 C          2.4456220524       -2.7790302895       -2.3497151322
 C          2.9442230282       -1.4951376422       -2.4704768774
 C          2.5997973531       -0.5391074810       -1.5205152720
 C          1.7611941064       -0.8864080668       -0.4753160654
 H          1.4915870191       -0.1455451026        0.2636718382
 N          3.0651597494        0.7809904942       -1.6148031026
 S          3.4788917164        1.6114561749       -0.2225464609
 O          4.3007211004        2.7073116087       -0.6935992892
 O          4.0962736586        0.7387121249        0.7494916122
 C          1.9523373250        2.2742335860        0.4057045688
 C          1.7184777004        2.2470166361        1.7656490548
 C          0.5527037906        2.8103981301        2.2577893161
 C         -0.3522749998        3.3903291727        1.3841474827
 C         -0.1040151267        3.4088801502        0.0198576942
 C          1.0605811137        2.8485577891       -0.4782648069
 H          1.2857456803        2.8428225388       -1.5319571478
 H         -0.8137527924        3.8562847123       -0.6577223811
 H         -1.2579025647        3.8274887582        1.7749271118
 H          0.3512488478        2.7785638522        3.3161995327
 H          2.4378425127        1.7684262755        2.4110716204
 H          3.7165135516        0.9550123968       -2.3664067254
 H          3.5914269997       -1.2295737670       -3.2925598054
 H          2.7108131597       -3.5224553760       -3.0862005533
 H          1.2404555261       -4.1320928037       -1.2167941354
 H          0.8840182099       -2.1877891389        1.7371921057
 C         -0.1414085783       -3.8742264268        0.9124338090
 C          0.7470548996       -4.9190360705        1.5156113494
 C         -0.4630749151       -4.4430373785        2.2603191899
 H         -1.3087446113       -5.1080789477        2.3512222330
 H         -0.3177425864       -3.8024801255        3.1183389021
 H          0.7321210361       -5.9143372862        1.0979574332
 H          1.7170801912       -4.6047507381        1.8708867919
 H         -0.7801580657       -4.1594781402        0.0852076768
