  62
        -98.94066172
 C         -1.7449503401       -0.3505375205        0.4413997099
 C         -2.9234013500       -0.5134191910        1.2136475900
 C         -4.1646330001       -0.7304219008        0.4628095602
 C         -4.1345957203       -0.7471567701       -0.8819604499
 C         -5.3112323504       -0.9773609498       -1.7912227698
 C         -6.1441960806        0.2819475802       -2.0672124490
 C         -7.0016484605        0.7654313796       -0.8968829586
 H         -7.6918333406        1.5131188797       -1.2928008382
 H         -7.6016171003       -0.0635372006       -0.5200829989
 C         -6.2043303203        1.3921099891        0.2555806215
 H         -5.2020530004        1.6509744194       -0.0939161285
 H         -6.6840711804        2.3228062389        0.5670861320
 C         -6.0826827400        0.5079057686        1.4966790611
 H         -5.4684208799        1.0324378283        2.2331168612
 H         -7.0713909999        0.3518058982        1.9339114312
 C         -5.4422487699       -0.8615532513        1.2357421803
 H         -6.1415947599       -1.5091890111        0.7072544201
 H         -5.2026386497       -1.3165130917        2.2000678201
 H         -5.4718899707        1.0835385205       -2.3818380788
 H         -6.8070547707        0.0562141906       -2.9057351690
 H         -5.9518182603       -1.7537242201       -1.3717740900
 H         -4.9052873206       -1.3354773193       -2.7397118600
 O         -2.9881570404       -0.5668216797       -1.5878898100
 C         -1.7704365103       -0.3449615398       -0.9542332801
 O         -0.8222704005       -0.1652863894       -1.7397917701
 O         -2.9361614997       -0.4768561516        2.4729556701
 C         -0.4453432400       -0.1095907007        1.1872597598
 C          0.3051154498        1.0507090897        0.5836468902
 C         -0.3434268604        2.2778159996        0.4613409709
 C          0.2988530394        3.3658962600       -0.0941230987
 C          1.6144062094        3.2643312503       -0.5135887489
 C          2.2749296695        2.0507881703       -0.3836461696
 C          1.6178806497        0.9522109400        0.1536207300
 H          2.1438870098        0.0151219000        0.2171344094
 N          3.6098164194        1.9030574807       -0.7933506499
 S          4.6755126697        1.1102602503        0.2261819595
 O          4.3225465199        1.3050136996        1.6136042097
 O          5.9847110696        1.5864854606       -0.1681726405
 C          4.5433987698       -0.6119794295       -0.2030237513
 C          4.4527829501       -1.5526129800        0.8037847383
 C          4.3973983202       -2.8954094499        0.4645958777
 C          4.4353324900       -3.2716454092       -0.8694690325
 C          4.5267253497       -2.3141608187       -1.8684753321
 C          4.5850005896       -0.9703810589       -1.5356864215
 H          4.6574359994       -0.1997600585       -2.2847227811
 H          4.5520880895       -2.6112057082       -2.9044886622
 H          4.3899148800       -4.3170903891       -1.1313608030
 H          4.3235034704       -3.6409820602        1.2404627473
 H          4.4175839302       -1.2145886905        1.8273505984
 H          4.0257241793        2.7343486409       -1.1878441196
 H          2.1217515592        4.1158613506       -0.9416622086
 H         -0.2230003707        4.3061233400       -0.1933262081
 H         -1.3681658803        2.3621933894        0.7982415711
 H         -0.7652960799        0.1916744888        2.1998042300
 C          0.4138947202       -1.3535890007        1.3593990791
 C         -0.1937568397       -2.7234753908        1.3574925785
 C          0.6891515001       -2.2946148101        0.2261208086
 H          1.6752602301       -2.7287514900        0.1495330082
 H          0.2361863599       -2.0695251897       -0.7262649412
 H          0.1837802505       -3.4506984611        2.0603579281
 H         -1.2562991597       -2.8002912908        1.1778640887
 H          1.2241319503       -1.1895266910        2.0642732190
