  62
        -98.94610768
 C         -1.6204716658       -1.3096677383        0.4057374196
 C         -1.5424215855       -0.2739384362       -0.5565134796
 C         -2.4147084297        0.8845835080       -0.3175642341
 C         -3.1826819729        0.9337099803        0.7857592761
 C         -4.0932735234        2.0631714202        1.1841895990
 C         -5.4813413494        2.0050053174        0.5318238813
 C         -5.5143610619        2.3504889908       -0.9575029968
 H         -6.5627972420        2.4803597785       -1.2331656214
 H         -5.0154007542        3.3065057133       -1.1195431015
 C         -4.8938780421        1.2822166196       -1.8687201841
 H         -4.8133875381        0.3395504450       -1.3224686291
 H         -5.5540093349        1.1019442382       -2.7202034346
 C         -3.5202779486        1.6480640979       -2.4313595246
 H         -3.1616879314        0.8077971919       -3.0315067047
 H         -3.6130657112        2.5148160449       -3.0896573116
 C         -2.4604828371        1.9568734741       -1.3653586114
 H         -2.6590237854        2.9282603018       -0.9123714168
 H         -1.4844962616        1.9914188090       -1.8563435109
 H         -5.8976724946        1.0064446447        0.6833752027
 H         -6.1206535615        2.7148326357        1.0616604346
 H         -4.2193314984        1.9927932429        2.2666527791
 H         -3.6212331961        3.0177598989        0.9500749999
 O         -3.2011386269       -0.0661271621        1.7057663327
 C         -2.4426293232       -1.2100610005        1.5327146966
 O         -2.5793960699       -2.0557895057        2.4381421187
 O         -0.7929137334       -0.2943438493       -1.5682245405
 C         -0.7759936671       -2.5714585899        0.2969208575
 C          0.6567923072       -2.1769106462        0.5569184658
 C          1.1265416904       -2.1073636903        1.8654175467
 C          2.4021549544       -1.6462810887        2.1347852414
 C          3.2247967666       -1.2143458726        1.1083979632
 C          2.7563799812       -1.2657740803       -0.1973816396
 C          1.4939848066       -1.7732397368       -0.4709815200
 H          1.1442773516       -1.7985245456       -1.4903278051
 N          3.5506656530       -0.7527257697       -1.2396810450
 S          4.2100702262        0.7641613790       -0.9757067140
 O          4.2663511403        1.3952473242       -2.2764052571
 O          5.4792249558        0.6182180908       -0.3045645893
 C          3.0788919840        1.6372543043        0.1000060861
 C          1.7317326722        1.6700490857       -0.2024619820
 C          0.8730898200        2.3462937010        0.6495351669
 C          1.3694826589        2.9842774391        1.7753625491
 C          2.7256833818        2.9509793932        2.0594018840
 C          3.5883136551        2.2683062183        1.2174390756
 H          4.6475252847        2.2043554935        1.4073655031
 H          3.1110463973        3.4480514610        2.9350073725
 H          0.6928601845        3.5063880524        2.4334257633
 H         -0.1835260615        2.3567647962        0.4315457146
 H          1.3484194252        1.1626604657       -1.0741362816
 H          3.0910665146       -0.7844144006       -2.1389497213
 H          4.2132693149       -0.8279855775        1.2991250561
 H          2.7553928758       -1.6070322530        3.1538169046
 H          0.4699183393       -2.4035364734        2.6714398708
 H         -1.1055392215       -3.2264381009        1.1135568866
 C         -0.9862196730       -3.2908197421       -1.0189602080
 C         -0.4959812241       -4.6989008014       -1.1667730050
 C         -1.9663965627       -4.4214751631       -1.0861874527
 H         -2.5628438965       -4.5335760094       -1.9793493834
 H         -2.4880952598       -4.6866995128       -0.1781097063
 H         -0.0811451582       -5.0053746227       -2.1148685463
 H         -0.0179134728       -5.1514320289       -0.3111410238
 H         -0.9277020519       -2.6419827588       -1.8835003848
