  62
        -98.93384672
 C          1.9556665360        0.4081060710       -0.1131296176
 C          3.0458760157        1.1673662233        0.3856169627
 C          4.2864826301        0.4316861512        0.6692271901
 C          4.3085725087       -0.9016338862        0.4943485468
 C          5.5121674623       -1.7841386816        0.6658134179
 C          6.4441571067       -1.6463697179       -0.5551013745
 C          7.8041269224       -1.0212790539       -0.2433433519
 H          8.4291702921       -1.7637779720        0.2572839628
 H          8.2790466554       -0.7803736843       -1.1968549401
 C          7.7778376506        0.2353414259        0.6322709513
 H          7.6621885677       -0.0492898282        1.6791941496
 H          8.7602567500        0.7041534256        0.5441742369
 C          6.7038622212        1.2742010365        0.2843464501
 H          6.4026994824        1.1810688639       -0.7594361438
 H          7.1423076005        2.2673985370        0.4009145801
 C          5.4537908619        1.2283891412        1.1828468453
 H          5.7322268070        0.8686330594        2.1773062795
 H          5.0687248383        2.2459182730        1.2982702105
 H          6.6134381537       -2.6298424013       -0.9962628421
 H          5.9320822729       -1.0477537751       -1.3115601189
 H          6.0368857807       -1.5168508306        1.5804498710
 H          5.1527641446       -2.8094650264        0.7562737329
 O          3.2314667708       -1.6031473059        0.0604882147
 C          2.0294013613       -0.9784529335       -0.2558488621
 O          1.1463376161       -1.7663186409       -0.6400862304
 O          2.9818009759        2.4093221089        0.5881247996
 C          0.6700313075        1.1595229013       -0.4149329417
 C         -0.4956317573        0.4829796109        0.2582346675
 C         -0.6590864206        0.6257299325        1.6329508445
 C         -1.7003575732       -0.0014307143        2.2908952644
 C         -2.6002167822       -0.7857521361        1.5913542259
 C         -2.4442589527       -0.9356793219        0.2198013801
 C         -1.4064189605       -0.2923467603       -0.4417244267
 H         -1.2838302384       -0.4337403742       -1.5040720238
 N         -3.3546021601       -1.7321197023       -0.4937989914
 S         -4.9853310415       -1.5240676656       -0.1976089886
 O         -5.3610675844       -2.2283954611        1.0031305848
 O         -5.6502819390       -1.9453960181       -1.4107664893
 C         -5.1813081072        0.2326997456        0.0479043993
 C         -5.5905093885        0.7187499162        1.2725430403
 C         -5.6891232192        2.0896310628        1.4507339166
 C         -5.3738172567        2.9459734501        0.4076587349
 C         -4.9673065248        2.4420329938       -0.8186362713
 C         -4.8685279383        1.0728164673       -1.0026685048
 H         -4.5617713326        0.6475805055       -1.9447579946
 H         -4.7237975010        3.1106902167       -1.6286789349
 H         -5.4452458569        4.0127896458        0.5495012780
 H         -6.0067387766        2.4842728328        2.4023683705
 H         -5.8238138493        0.0177839421        2.0572584168
 H         -3.1545273317       -1.8063692014       -1.4796760477
 H         -3.4084564248       -1.2975169099        2.0882754954
 H         -1.8115919864        0.1164220242        3.3580693040
 H          0.0502295843        1.2291119063        2.1825716282
 H          0.8154355225        2.1406872993        0.0653495985
 C          0.4282638521        1.4366221797       -1.8912567911
 C          1.5744769783        1.7484855616       -2.8051324348
 C          0.8013025432        0.4774039500       -2.9801061312
 H          0.1436130664        0.3939451329       -3.8336202777
 H          1.2659637089       -0.4542574789       -2.6980452264
 H          1.4536917787        2.5322190505       -3.5376204168
 H          2.5704284241        1.6862425469       -2.3911923225
 H         -0.4799068892        2.0119161309       -2.0447029073
