  62
        -98.93315211
 C         -2.4283426809       -0.7514913823        0.2979842664
 C         -2.8609357459        0.5559770906        0.6305100446
 C         -4.0292000976        1.0799882140       -0.0959071428
 C         -4.5967210737        0.3176233466       -1.0464366225
 C         -5.8192922824        0.6288507526       -1.8647077121
 C         -7.0781150800        0.0422630088       -1.2035062976
 C         -7.7425756432        0.9468956655       -0.1664341123
 H         -8.2185611388        1.7873086746       -0.6759603855
 H         -8.5327089258        0.3650076250        0.3137196854
 C         -6.8106388403        1.4969013585        0.9165723206
 H         -6.1412603608        0.7071554585        1.2626067062
 H         -7.4258451351        1.7946157979        1.7679564362
 C         -5.9902928243        2.7086701012        0.4493843112
 H         -6.1028302334        3.5211753169        1.1703015193
 H         -6.3985713181        3.0734932295       -0.4929324767
 C         -4.4822392793        2.4598857266        0.2959936925
 H         -4.0720946179        3.1792034451       -0.4210910639
 H         -3.9818337540        2.6544301532        1.2500221067
 H         -7.8127887814       -0.1764667533       -1.9810275066
 H         -6.8003715195       -0.9078419318       -0.7399239733
 H         -5.9176834296        1.6991012476       -2.0199330268
 H         -5.6771202326        0.1439889568       -2.8327508204
 O         -4.1324295417       -0.9209770797       -1.3594533053
 C         -3.0499356854       -1.4942859895       -0.7067653234
 O         -2.7665875818       -2.6333307049       -1.1171275361
 O         -2.2992673105        1.2537598376        1.5198512766
 C         -1.2509399273       -1.2972674255        1.0855907788
 C          0.0514733618       -0.9904023876        0.3916571237
 C          0.2670379753       -1.3476083061       -0.9361034066
 C          1.4724809699       -1.0598697064       -1.5491249935
 C          2.4831117865       -0.4121490809       -0.8589860885
 C          2.2702380986       -0.0301967516        0.4583128415
 C          1.0592853384       -0.3264971248        1.0742604975
 H          0.8924582595       -0.0185497578        2.0975543391
 N          3.2855911208        0.6134355008        1.1770066916
 S          4.3155853445        1.7017919719        0.4309775499
 O          4.8558709678        2.4957566382        1.5122772858
 O          3.6575254036        2.4267205685       -0.6307980280
 C          5.6058129027        0.6690694485       -0.2336812534
 C          6.1874830303       -0.2664928115        0.5994733664
 C          7.1997747293       -1.0700134711        0.1000466598
 C          7.6143729220       -0.9231323848       -1.2153004511
 C          7.0238610736        0.0237983168       -2.0377746318
 C          6.0093989618        0.8297719739       -1.5446118723
 H          5.5177064271        1.5743544910       -2.1506188644
 H          7.3478141973        0.1373232100       -3.0598773352
 H          8.4019819767       -1.5505432349       -1.6017280322
 H          7.6609924101       -1.8078792058        0.7365686330
 H          5.8392157326       -0.3497876003        1.6153520877
 H          3.0172918366        0.9204056885        2.1000962132
 H          3.4198676793       -0.1828788986       -1.3392967078
 H          1.6298947989       -1.3454438793       -2.5782632487
 H         -0.5190913698       -1.8519252660       -1.4775834451
 H         -1.2616763476       -0.7245280409        2.0269247812
 C         -1.3996498581       -2.7672687508        1.4535100724
 C         -0.5521319979       -3.8611054563        0.8844689300
 C         -0.3575983221       -3.4307200201        2.3052868441
 H         -0.6779186941       -4.0887792274        3.0986533713
 H          0.5295841306       -2.8592036065        2.5339772918
 H         -1.0310005884       -4.8076147655        0.6859004388
 H          0.2065459824       -3.5998602690        0.1643720671
 H         -2.4330942205       -3.0252461042        1.6621483422
