  62
        -98.94464796
 C          1.6151178887        1.2675238808       -0.2470929997
 C          1.4029167704       -0.1039498962       -0.5257632373
 C          2.2340207187       -1.0529260074        0.2303892674
 C          3.0820944025       -0.5949304977        1.1672411656
 C          4.0104136477       -1.4482612084        1.9810847420
 C          5.3751733971       -1.5990367618        1.2939823812
 C          5.2850710297       -1.9954371972       -0.1796598018
 H          4.8206636915       -1.1802035392       -0.7389785339
 H          6.3068249405       -2.0999125620       -0.5508911326
 C          4.5102167354       -3.2944646224       -0.4409683267
 H          5.0721818312       -3.8996879705       -1.1554200229
 H          4.4322404158       -3.8709294639        0.4815456753
 C          3.1131133089       -3.0918227846       -1.0300886656
 H          3.1760634707       -2.4383359003       -1.9036549822
 H          2.7443776397       -4.0627342525       -1.3712144578
 C          2.0628811239       -2.5152973712       -0.0719997380
 H          1.0843376516       -2.6119298434       -0.5507339642
 H          2.0429327740       -3.0969286818        0.8521542580
 H          5.9548186040       -2.3459197299        1.8395153855
 H          5.9021782264       -0.6443815060        1.3604705001
 H          4.1516005532       -0.9707082835        2.9523800891
 H          3.5561033089       -2.4256113836        2.1331717624
 O          3.2255730985        0.7256435382        1.4469433889
 C          2.5076991265        1.6790129399        0.7474468426
 O          2.7525961147        2.8537563438        1.0921328326
 H         -1.1372972223        0.6600465617       -0.3629365839
 C         -1.3461134381        1.6457676147        0.0150808804
 C         -0.4348108767        2.6703797862       -0.1999482125
 C         -0.7238328598        3.9385606403        0.2882954900
 C         -1.8927554826        4.1697462566        0.9914522007
 C         -2.7750852696        3.1359070911        1.2440395611
 C         -2.4946781587        1.8615184049        0.7605001663
 N         -3.3723071567        0.7979448730        1.0138974240
 S         -2.8267767342       -0.7418716151        1.4176849788
 O         -3.6889125631       -1.1583761739        2.5073805356
 O         -1.4103480341       -0.7527802186        1.6882357528
 C         -3.2439611129       -1.7132852771       -0.0164510170
 C         -4.5377205615       -2.1936677983       -0.1025490785
 C         -4.9096377772       -2.9356585329       -1.2108786949
 C         -3.9854682299       -3.1848565996       -2.2146556756
 C         -2.6923572002       -2.6972573699       -2.1134518461
 C         -2.3129980304       -1.9531279079       -1.0057998398
 H         -1.3106124657       -1.5636444434       -0.9131233532
 H         -1.9687713937       -2.8863004345       -2.8905149158
 H         -4.2728320808       -3.7624174190       -3.0792166792
 H         -5.9150618253       -3.3168861356       -1.2889595882
 H         -5.2182426233       -1.9888685942        0.7072645872
 H         -4.1630187247        1.0481072895        1.5901872127
 H         -3.6732847094        3.3083643256        1.8179818131
 H         -2.1085301080        5.1591480322        1.3656285736
 H         -0.0164719414        4.7398228372        0.1324776892
 C          0.8597528299        2.3986649575       -0.9300765003
 H          1.4948112794        3.2887398926       -0.8184831948
 C          0.6102708926        2.1742439977       -2.4081543497
 C          0.4113691282        3.3629913890       -3.2978000242
 C          1.6694281903        2.5543631970       -3.3966759080
 H          1.8157133159        1.9248513467       -4.2613470986
 H          2.5830785139        2.9827707670       -3.0099789184
 H         -0.3099862936        3.2916261680       -4.0970391330
 H          0.4741609698        4.3423426315       -2.8479682349
 H          0.0314560300        1.2849247842       -2.6169851357
 O          0.5728482470       -0.5426567031       -1.3660025635
