  62
        -98.94579589
 C         -1.5119602077       -1.3770540518       -0.7184308798
 C         -2.7764225404       -1.1198394798       -0.1261758734
 C         -3.4459656071        0.1209997918       -0.5240735477
 C         -2.8663314214        0.9259250740       -1.4323730593
 C         -3.4122441710        2.2345430400       -1.9346071652
 C         -3.0744235778        3.4228703889       -1.0236841008
 C         -3.8606265074        3.4770404676        0.2869609987
 H         -3.6980816472        4.4675097241        0.7167118705
 H         -4.9265631740        3.3830822911        0.0755345332
 C         -3.4424623025        2.4197891970        1.3188978963
 H         -2.4575836644        2.0230170864        1.0562209038
 H         -3.3396642439        2.8906433952        2.2997048217
 C         -4.4274666688        1.2602792191        1.4755807482
 H         -4.0097286341        0.5547400839        2.1985596168
 H         -5.3719691608        1.6355957499        1.8762506231
 C         -4.7162803309        0.4929901117        0.1787266436
 H         -5.3551812925        1.0853965319       -0.4757809587
 H         -5.2376353290       -0.4320480068        0.4370378958
 H         -2.0037043795        3.3998226767       -0.8028953377
 H         -3.2805030524        4.3370216670       -1.5856981048
 H         -4.4930731438        2.1623319723       -2.0590733836
 H         -2.9581218683        2.4091634221       -2.9123197372
 O         -1.6850591559        0.6192181826       -2.0223930955
 C         -0.9522700518       -0.4987561225       -1.6457175237
 O          0.1439919270       -0.5834546285       -2.2340286883
 O         -3.3197632725       -1.8990842046        0.7029155300
 C         -0.7731618597       -2.5985028249       -0.1950258297
 C         -0.0039244815       -2.1939945516        1.0420696364
 C         -0.2176491206       -2.8249850898        2.2606245224
 C          0.4357069873       -2.3871163704        3.3994388669
 C          1.2881675635       -1.3004273669        3.3460128558
 C          1.5129834881       -0.6638102370        2.1282689012
 C          0.8940794742       -1.1368203676        0.9818343876
 H          1.0683515551       -0.6420505936        0.0412816062
 N          2.3674331856        0.4419206602        2.0575334104
 S          2.1922871731        1.6801922549        0.9401782026
 O          2.6794452035        2.8522618317        1.6408586490
 O          0.8465085928        1.7651290477        0.4269794224
 C          3.3817559486        1.2502255351       -0.3132084512
 C          4.7140443148        1.4203006680        0.0164170924
 C          5.6864387317        1.0795443465       -0.9078746628
 C          5.3132340414        0.5738671295       -2.1446984119
 C          3.9741469642        0.4113548263       -2.4604554941
 C          2.9937633378        0.7519979958       -1.5391302617
 H          1.9465364867        0.6219960338       -1.7673763081
 H          3.6758884104        0.0169361429       -3.4188809371
 H          6.0686394308        0.3057460378       -2.8665372783
 H          6.7286942938        1.2071525861       -0.6635460500
 H          4.9577662853        1.8285191120        0.9831673692
 H          2.6915268648        0.7873512394        2.9483744958
 H          1.7722011142       -0.9367675876        4.2397112606
 H          0.2612092745       -2.8818199941        4.3429140774
 H         -0.9199312915       -3.6432323339        2.3177010301
 H         -1.5566021391       -3.3030989901        0.1174236717
 C          0.1239863533       -3.2931195911       -1.1966735352
 C          0.4431531750       -4.7438602330       -0.9983100160
 C         -0.4606087211       -4.3208849788       -2.1164786594
 H         -0.0929527713       -4.3701424841       -3.1300950162
 H         -1.5169525440       -4.5286383029       -2.0258878423
 H          1.4359401805       -5.0888261453       -1.2422311872
 H         -0.0011305995       -5.2440588902       -0.1511805425
 H          0.9019426018       -2.6566842774       -1.5961045554
