  62
        -98.93745463
 C         -2.4648883320       -1.1573274055        0.0070564900
 C         -3.4318080365       -0.6796127477        0.9296101868
 C         -4.4227459065        0.2848837597        0.4245531309
 C         -4.3710971745        0.6507790768       -0.8675764731
 C         -5.2414554728        1.6512670938       -1.5764523665
 C         -4.5915451604        3.0454122764       -1.5613577257
 C         -4.9116676117        3.8924182821       -0.3303055536
 H         -4.2936062098        4.7915062770       -0.3851547209
 H         -5.9556676741        4.2094561043       -0.3750405266
 C         -4.6655104883        3.2081740488        1.0168790949
 H         -4.5654965825        3.9874846120        1.7747973722
 H         -3.7192483773        2.6647606845        0.9863287020
 C         -5.8003910446        2.2582536316        1.4277416809
 H         -6.1259213476        2.5007055114        2.4414547307
 H         -6.6596398631        2.4271973032        0.7790744110
 C         -5.4370813829        0.7664977546        1.4258345109
 H         -5.0165498678        0.4930849293        2.3985412380
 H         -6.3518985807        0.1765044288        1.3055938225
 H         -4.9220785299        3.5951063832       -2.4450571771
 H         -3.5098890078        2.9116599101       -1.6455621827
 H         -5.3198538590        1.3153514124       -2.6125974820
 H         -6.2356309019        1.6754904784       -1.1403207059
 O         -3.4331647795        0.1640045007       -1.7235612228
 C         -2.4620567526       -0.7372367158       -1.3224670777
 O         -1.6859607025       -1.0662666489       -2.2435909105
 H          0.2626911040       -0.9924139928       -1.2065969803
 C          0.6438457649       -0.9696483499       -0.1962347224
 C         -0.1185985620       -1.5100277273        0.8296176396
 C          0.3831350681       -1.4629511433        2.1251100656
 C          1.6155279821       -0.8885677711        2.3831620977
 C          2.3693725241       -0.3457547292        1.3581815221
 C          1.8758763048       -0.3848208776        0.0605362190
 N          2.6190714389        0.1884678924       -0.9861692176
 S          4.2304150445       -0.2497159146       -1.1510622908
 O          4.5515260664       -0.0084914444       -2.5408143233
 O          4.4700373909       -1.5868176498       -0.6588955348
 C          5.0990432502        0.9345881438       -0.1438599939
 C          4.8820354249        2.2770939512       -0.3852168341
 C          5.5586635229        3.2124415501        0.3812052331
 C          6.4381599220        2.7920633384        1.3680455072
 C          6.6474470528        1.4406098811        1.5958492123
 C          5.9728295412        0.4996649981        0.8332986543
 H          6.0988828606       -0.5614133061        0.9784859941
 H          7.3314256824        1.1160012816        2.3634651193
 H          6.9634094886        3.5225470582        1.9628789907
 H          5.3982506100        4.2642933433        0.2070397071
 H          4.1923811910        2.5612917699       -1.1626631853
 H          2.1448460144        0.1525028326       -1.8773597895
 H          3.3290333228        0.1045457718        1.5528669184
 H          1.9927546019       -0.8606304910        3.3939724932
 H         -0.2055104906       -1.8726443964        2.9329735602
 C         -1.4529824195       -2.1570743791        0.5416957164
 H         -1.8701388999       -2.4970135786        1.4990761888
 C         -1.2770734353       -3.3661529261       -0.3571365941
 C         -0.7355153249       -4.6339287721        0.2291025654
 C         -2.1755518399       -4.5512010843       -0.1782023715
 H         -2.4978518809       -5.0899072281       -1.0566227689
 H         -2.9231687062       -4.4978209284        0.5997773567
 H         -0.0634090133       -5.2307076924       -0.3683839251
 H         -0.5065198989       -4.6386618887        1.2839792381
 H         -0.9842699588       -3.1143065412       -1.3683158524
 O         -3.4654887113       -1.0484603327        2.1341550370
