  62
        -98.93847545
 C         -1.4055398200       -1.7226967917       -0.2328716742
 C         -1.3738246586       -0.3363164381       -0.5163593966
 C         -2.6807000209        0.3401750214       -0.5661272003
 C         -3.7994810068       -0.3757405061       -0.3531538305
 C         -5.1929938868        0.1831896620       -0.2939126937
 C         -5.4235293248        0.8821218616        1.0613346481
 C         -5.6412671276        2.3922281996        0.9634420919
 H         -6.6517213334        2.5817040949        0.5949126510
 H         -5.5791498649        2.7972400484        1.9757872063
 C         -4.6630312533        3.1507150412        0.0613135004
 H         -4.9604580717        3.0328745032       -0.9817240125
 H         -4.7715127551        4.2113648857        0.2977420425
 C         -3.1848495751        2.7628148569        0.1977124566
 H         -2.5880488170        3.6741930450        0.1294746864
 H         -2.9891532977        2.3283623778        1.1780193864
 C         -2.6702117003        1.8073695451       -0.8944137773
 H         -3.2260179337        1.9781331706       -1.8205359422
 H         -1.6184466156        2.0354512855       -1.0905513890
 H         -4.5632664041        0.6779309289        1.7022237720
 H         -6.2924848761        0.4429632617        1.5539033215
 H         -5.3445162527        0.8804351280       -1.1149374311
 H         -5.8838095003       -0.6517240139       -0.4131298233
 O         -3.7862180076       -1.7080789598       -0.0826832229
 C         -2.5958488084       -2.4128600873       -0.0097654642
 O         -2.7283476240       -3.6243116538        0.2586683847
 H          2.3735204850       -1.2711013437       -0.3807135170
 C          1.9871448317       -1.2877435410        0.6236515694
 C          0.7701250088       -1.8849431475        0.9067133022
 C          0.3175017943       -1.8906745190        2.2244751597
 C          1.0637349667       -1.3094751569        3.2305487249
 C          2.2712235915       -0.6969333999        2.9416635211
 C          2.7312912887       -0.6872160494        1.6308428709
 N          3.9579352400       -0.0886147028        1.3121951556
 S          4.1918006275        0.6943258332       -0.1419204946
 O          4.3271604273       -0.2641076527       -1.2105817915
 O          5.3557357042        1.5246476503        0.0968234733
 C          2.7826329800        1.7507584345       -0.4230197091
 C          2.2946120932        2.5118322433        0.6193938128
 C          1.2520418391        3.3897444085        0.3760778791
 C          0.7255389768        3.5001387934       -0.9007344528
 C          1.2250015902        2.7276608447       -1.9359026179
 C          2.2619364517        1.8421327040       -1.6959416771
 H          2.6708591100        1.2137413231       -2.4712277925
 H          0.8039090015        2.8037032650       -2.9259695638
 H         -0.0833751305        4.1891805598       -1.0896448769
 H          0.8511598771        3.9828834747        1.1827135388
 H          2.7242972401        2.4137825502        1.6033057914
 H          4.4155539069        0.3905863160        2.0733509336
 H          2.8537510992       -0.2350214177        3.7241972525
 H          0.7011460676       -1.3249134974        4.2473653020
 H         -0.6336308361       -2.3570765751        2.4446302909
 C         -0.1049006833       -2.5035960253       -0.1551127702
 H         -0.3751307929       -3.5190744100        0.1675419451
 C          0.5503048763       -2.5824388033       -1.5172938084
 C          1.5405590917       -3.6685604282       -1.8071323537
 C          0.1840130833       -3.7007366223       -2.4437083798
 H          0.1035437170       -3.4903792659       -3.4996788580
 H         -0.5322255630       -4.4272015396       -2.0877269138
 H          2.3967807480       -3.4339493669       -2.4216611313
 H          1.7477314596       -4.3773290916       -1.0194875749
 H          0.7222830962       -1.6077389389       -1.9594235299
 O         -0.3122936772        0.3057395535       -0.7209005725
