  62
        -98.93506548
 C         -2.0376822731       -0.6970949390       -0.3819609650
 C         -3.1844171114       -1.2253338516        0.2612288846
 C         -4.4544406831       -0.4914265066        0.0992967199
 C         -4.4527970902        0.6478940097       -0.6165913249
 C         -5.6005146433        1.5844999321       -0.8859188033
 C         -5.9499302188        2.4582474296        0.3292357096
 C         -5.9964273002        1.7157891089        1.6619945977
 H         -5.0277799868        1.2469588872        1.8446582924
 H         -6.1501368544        2.4581618308        2.4496586485
 C         -7.1004536758        0.6682861581        1.7852960718
 H         -7.0774168657        0.2930498927        2.8116145696
 H         -8.0690452605        1.1487068716        1.6298886164
 C         -6.9942936794       -0.5306973662        0.8401743718
 H         -7.3295404158       -0.2733064754       -0.1610360102
 H         -7.6819633041       -1.2972542114        1.2092405619
 C         -5.6134023134       -1.1761676823        0.7830802788
 H         -5.7064978450       -2.1544217568        0.2956957944
 H         -5.2768236052       -1.3952920654        1.8028032131
 H         -6.9121245285        2.9385285653        0.1431692497
 H         -5.1920213493        3.2413700001        0.4107782800
 H         -5.2864974813        2.2370532047       -1.7037368654
 H         -6.4683876192        1.0256272741       -1.2233900210
 O         -3.3183237161        1.1404991028       -1.1880629497
 C         -2.0923465632        0.5005013833       -1.0961428844
 O         -1.1723011385        1.0960812546       -1.6863379357
 O         -3.1549688914       -2.2766605133        0.9559521696
 C         -0.7327123740       -1.4557321590       -0.2108993630
 C          0.3574244323       -0.5143020278        0.2309302997
 C          0.3806014699       -0.0751813780        1.5513906921
 C          1.3448219760        0.8157510632        1.9839858928
 C          2.3051104317        1.2897572761        1.1079175046
 C          2.2904959127        0.8570795146       -0.2114716287
 C          1.3311999071       -0.0514428845       -0.6397679012
 H          1.3176195030       -0.3635611276       -1.6721878549
 N          3.2571141970        1.3388224892       -1.1070734899
 S          4.8459552964        1.4377194644       -0.6063454294
 O          5.0368747718        2.6179553685        0.1998863594
 O          5.6308094890        1.3679078760       -1.8189716965
 C          5.1058813075       -0.0205277197        0.3888663384
 C          5.4071937174        0.1007595947        1.7297695482
 C          5.5685885303       -1.0484978905        2.4873136468
 C          5.4230062812       -2.2925617206        1.8941234323
 C          5.1237495844       -2.3982026748        0.5441912729
 C          4.9618657288       -1.2528701103       -0.2176336766
 H          4.7364106517       -1.2990653375       -1.2709210326
 H          5.0127415033       -3.3673743567        0.0849792382
 H          5.5446862634       -3.1861431812        2.4857541475
 H          5.8039062342       -0.9694235431        3.5364106193
 H          5.5108210312        1.0873507967        2.1511412584
 H          3.1708243069        0.9809452451       -2.0459022446
 H          3.0502730790        2.0032395534        1.4203048829
 H          1.3468800695        1.1504865662        3.0101996276
 H         -0.3769491279       -0.4344833271        2.2342817817
 H         -0.9355908134       -2.1545782207        0.6167479968
 C         -0.3348684042       -2.3097097033       -1.4056210967
 C         -1.3770936081       -3.0184698798       -2.2166163317
 C         -0.5841827129       -1.9032343920       -2.8260099110
 H          0.1620969844       -2.1536120275       -3.5665143416
 H         -1.0730896624       -0.9585731426       -3.0050965635
 H         -1.1812023493       -4.0293166919       -2.5409445742
 H         -2.4117601221       -2.8310887107       -1.9686728418
 H          0.5823803532       -2.8588889546       -1.2145680829
