  62
        -98.94591257
 C          1.0583086556        1.2766681789       -0.1052003718
 C          1.7732586447        0.6338026462        0.9396276894
 C          2.5967942700       -0.5178345794        0.5581746479
 C          2.6077534575       -0.9300343861       -0.7221380912
 C          3.3569194261       -2.1171450691       -1.2641445593
 C          4.8224615384       -1.8238388139       -1.6134033250
 C          5.7513709956       -1.6358465808       -0.4131129963
 H          5.6435124567       -2.4835784985        0.2641583331
 H          6.7740617591       -1.6522856712       -0.7949702543
 C          5.5327827668       -0.3260179651        0.3571850479
 H          4.9598301446        0.3684600226       -0.2617782674
 H          6.4981813555        0.1450866255        0.5551771973
 C          4.8248430971       -0.4915395253        1.7019213264
 H          5.4530142778       -1.0776133413        2.3762118020
 H          4.6909090392        0.4996672722        2.1421898457
 C          3.4468355515       -1.1606578745        1.6132700525
 H          3.5613962866       -2.2267004580        1.4156930303
 H          2.9421443870       -1.0290920191        2.5736376322
 H          5.1912231427       -2.6657287668       -2.2039914990
 H          4.8587008780       -0.9339792946       -2.2463448261
 H          2.8384464198       -2.4213489870       -2.1763793397
 H          3.3097757063       -2.9389935172       -0.5487632679
 O          1.8948761612       -0.3031469948       -1.6937487177
 C          1.1228375078        0.8244316173       -1.4242588632
 O          0.5726110526        1.2951135009       -2.4381916735
 O          1.7260810548        1.0113415590        2.1400641911
 C          0.2155347450        2.4696174105        0.3061731104
 C         -1.1981316531        2.0589450437        0.6486130246
 C         -1.7904092014        2.4996414950        1.8267999853
 C         -3.0907308250        2.1469271432        2.1379268940
 C         -3.8170011691        1.3322057335        1.2888378684
 C         -3.2331527632        0.8813243128        0.1105426799
 C         -1.9345937969        1.2534915431       -0.2086455553
 H         -1.5037626560        0.9100025790       -1.1365781795
 N         -3.9462919201        0.0405832737       -0.7626278899
 S         -3.1947055167       -1.3463220541       -1.3224157947
 O         -2.2676792907       -1.0347745543       -2.3779151696
 O         -4.2899677785       -2.2239602647       -1.6791666934
 C         -2.3397991616       -1.9956709710        0.1014476435
 C         -0.9699212553       -1.8700217807        0.1976925216
 C         -0.3322139320       -2.3356275965        1.3367629410
 C         -1.0737940333       -2.9122825958        2.3556625782
 C         -2.4505247265       -3.0361922402        2.2425677450
 C         -3.0924244266       -2.5716319505        1.1068241012
 H         -4.1583762946       -2.6612465017        0.9744271942
 H         -3.0222545324       -3.4899924194        3.0358068087
 H         -0.5713949220       -3.2678505874        3.2412268973
 H          0.7377112236       -2.2306694947        1.4226500832
 H         -0.4262412973       -1.4140133518       -0.6150566145
 H         -4.8855619129       -0.1689734194       -0.4545096468
 H         -4.8289015335        1.0460203293        1.5314603106
 H         -3.5391850899        2.4987728611        3.0540896551
 H         -1.2192435078        3.1149896988        2.5054823050
 H          0.6800587584        2.8452442948        1.2288296357
 C          0.1880259037        3.5985750436       -0.7055956087
 C         -0.0666038476        4.9976016268       -0.2337315896
 C          1.2973301521        4.6052900472       -0.7154119954
 H          1.6419183500        4.9797373628       -1.6675494516
 H          2.0829965052        4.4891992532        0.0171028005
 H         -0.6642451211        5.6468850255       -0.8547590830
 H         -0.2017965476        5.1547185086        0.8254046225
 H         -0.2258978238        3.3061410994       -1.6620015623
