  62
        -98.93773918
 C         -1.9593612181       -1.1905778102       -0.1111327036
 C         -2.4221968452       -0.0131609407       -0.7437532325
 C         -3.8779449211        0.2156866469       -0.7050683403
 C         -4.6740238907       -0.6828352713       -0.1010373900
 C         -6.1776420111       -0.6738651915        0.0177131135
 C         -6.8528606515        0.6598951278        0.3664964098
 C         -6.0327811773        1.5854600158        1.2770340962
 H         -6.6577333641        1.9044765987        2.1132296503
 H         -5.1819773762        1.0438565906        1.6938754830
 C         -5.5343453460        2.8418743139        0.5587321847
 H         -6.3429564417        3.2342925611       -0.0618834341
 H         -5.2972259408        3.6031218359        1.3058427590
 C         -4.2880455147        2.6538244001       -0.3056883002
 H         -3.4149735049        2.4841185655        0.3307915615
 H         -4.1103225665        3.5859265962       -0.8476975953
 C         -4.3544368953        1.5000609171       -1.3196656565
 H         -5.3520809426        1.4011400905       -1.7407122538
 H         -3.6545113653        1.7246407716       -2.1292923471
 H         -7.1005318410        1.1937027568       -0.5499605521
 H         -7.7989331441        0.4161240066        0.8527863569
 H         -6.5944202989       -1.0508502076       -0.9207411697
 H         -6.4053654792       -1.4123368463        0.7900765467
 O         -4.1825725840       -1.8084486938        0.4911750473
 C         -2.8273482970       -2.0861680691        0.5112068090
 O         -2.5254785221       -3.1402860458        1.1066572493
 H          1.5427534219        0.1207267110       -1.0868477081
 C          1.2671628005        0.3400354588       -0.0697944554
 C          0.2745363974       -0.3843652163        0.5691448396
 C         -0.0650027918       -0.0438095801        1.8770866940
 C          0.5623940606        1.0044097219        2.5201692489
 C          1.5496675784        1.7304053580        1.8760484256
 C          1.8984563539        1.3982342619        0.5729695806
 N          2.8769718707        2.1387293873       -0.1073732816
 S          4.0430707944        1.3982143856       -1.0449172625
 O          5.0212712123        2.4358523813       -1.2853684997
 O          3.4508947309        0.7958350901       -2.2109995594
 C          4.7415396329        0.1470217026        0.0166399675
 C          4.2568570643       -1.1439995223       -0.0355397750
 C          4.7711944653       -2.0867091476        0.8409719215
 C          5.7541058669       -1.7247865263        1.7489351994
 C          6.2330626185       -0.4238030985        1.7862955104
 C          5.7202607543        0.5239387228        0.9159959580
 H          6.0723045819        1.5427266726        0.9038196738
 H          7.0013533703       -0.1467311718        2.4900542605
 H          6.1508838840       -2.4624007277        2.4285542371
 H          4.4014253080       -3.0993043446        0.8109777040
 H          3.4965996635       -1.3910159148       -0.7576859917
 H          3.2746704923        2.8968405433        0.4272249303
 H          2.0349376077        2.5568202348        2.3727604560
 H          0.2832906891        1.2599227315        3.5313477681
 H         -0.8409009324       -0.6093713190        2.3758958315
 C         -0.4752428343       -1.5151231287       -0.0913053377
 H         -0.3717427819       -2.4103297240        0.5388347461
 C          0.0077894971       -1.8462293192       -1.4870511586
 C          1.1744535868       -2.7662949186       -1.6786093030
 C         -0.2097426765       -3.2296503194       -2.0189357551
 H         -0.4766415956       -3.3461736436       -3.0586020030
 H         -0.6870114342       -3.9432315142       -1.3628007623
 H          1.8624703476       -2.5644726846       -2.4865932836
 H          1.6343929547       -3.1777300320       -0.7925482270
 H         -0.1139611819       -1.0239788282       -2.1830456268
 O         -1.6649080854        0.8077305027       -1.3235875551
