  62
        -98.93608636
 C         -2.5584684491       -0.8779131512        0.3146049551
 C         -2.9983202103        0.1590482308        1.1764617796
 C         -3.6541125699        1.3024320369        0.5332657312
 C         -3.7898631503        1.3252325801       -0.8048999393
 C         -4.4558095823        2.4081780296       -1.6096533424
 C         -3.5407933273        3.5976470168       -1.9317819909
 C         -3.2234512220        4.5134131545       -0.7488625999
 H         -2.7598428761        5.4138519289       -1.1565167994
 H         -4.1529207494        4.8162081301       -0.2657232215
 C         -2.2764835705        3.8988367675        0.2914664243
 H         -1.7657209397        3.0375769577       -0.1460846243
 H         -1.5063383503        4.6263043684        0.5575842343
 C         -2.9572828236        3.4645962390        1.5897118787
 H         -3.3608376201        4.3403292889        2.1026355434
 H         -2.2031020368        3.0123651666        2.2390018119
 C         -4.0888721838        2.4458717497        1.3997454048
 H         -4.3529146084        2.0401821450        2.3794998192
 H         -4.9663169543        2.9326592520        0.9746008704
 H         -4.0389353667        4.1924402893       -2.7008074678
 H         -2.6101246942        3.2159293139       -2.3580960770
 H         -5.3438322052        2.7613889626       -1.0846987356
 H         -4.7670021324        1.9489575890       -2.5503805600
 O         -3.3314699376        0.3245138809       -1.6008875840
 C         -2.6820300451       -0.7862487208       -1.0731056019
 O         -2.2810177176       -1.5874667326       -1.9361880805
 O         -2.8443995077        0.1319077222        2.4271300513
 C         -1.8571518133       -2.0656438987        0.9487057492
 C         -0.5546005071       -2.3389031866        0.2386522466
 C         -0.2581791447       -3.5363925451       -0.3965772271
 C          0.9609481519       -3.7082979854       -1.0295769283
 C          1.9047455120       -2.6987693238       -1.0459516974
 C          1.6204787689       -1.4963136872       -0.4104611959
 C          0.4033641264       -1.3313901973        0.2325786983
 H          0.1792697801       -0.3941660507        0.7290395887
 N          2.5623068441       -0.4455457168       -0.4383323948
 S          4.1448285038       -0.8263433663        0.0200320368
 O          4.7710762401       -1.5600017289       -1.0497991772
 O          4.1450030254       -1.4731719406        1.3144618502
 C          4.8629240094        0.7997197718        0.1373127201
 C          5.2963705819        1.4165732341       -1.0207667910
 C          5.8359895543        2.6902607558       -0.9388747574
 C          5.9318723685        3.3223125045        0.2921223155
 C          5.4933522557        2.6899331765        1.4457410989
 C          4.9514520232        1.4163421462        1.3707458778
 H          4.6069613020        0.8836279978        2.2428140525
 H          5.5717230660        3.1825613160        2.4015692316
 H          6.3537189842        4.3130488832        0.3535907751
 H          6.1802468647        3.1846323323       -1.8329178911
 H          5.2101620100        0.8831827964       -1.9529124334
 H          2.2402992343        0.3509777102        0.0960573693
 H          2.8562981866       -2.8262223606       -1.5356613098
 H          1.1773533273       -4.6428237054       -1.5253013025
 H         -0.9884243445       -4.3284447977       -0.4160151026
 H         -1.6151142782       -1.7222299549        1.9691996969
 C         -2.7300177694       -3.3003121632        1.1125219233
 C         -4.2152687348       -3.1774237448        1.2722448071
 C         -3.6437250947       -3.7955422098        0.0333989997
 H         -3.7460016588       -4.8629339340       -0.0986561153
 H         -3.6791842071       -3.2370036390       -0.8883194232
 H         -4.7092591501       -3.8169412803        1.9882322525
 H         -4.6460254243       -2.1893346030        1.1981752227
 H         -2.2442193129       -4.0567659372        1.7217953388
