  62
        -98.94534290
 C          2.6441652195        1.0879358817        0.2920915093
 C          2.5829635743        0.3226608992       -0.8980440947
 C          3.2301789464       -0.9963897149       -0.8439981787
 C          3.8302549490       -1.3920023540        0.2933605793
 C          4.4701381980       -2.7329103271        0.5051099682
 C          3.4653030298       -3.7405835231        1.0812201169
 C          2.1349777158       -3.7882106275        0.3284569835
 H          1.5168021723       -4.5532776132        0.8039702442
 H          1.6118771386       -2.8365348931        0.4551362902
 C          2.2638478952       -4.0944528638       -1.1702138541
 H          3.2399474348       -4.5359541822       -1.3754609465
 H          1.5074175971       -4.8340946548       -1.4408227327
 C          2.0503352598       -2.8868440510       -2.0851156293
 H          1.1121678868       -2.3888874412       -1.8220485600
 H          1.9461574694       -3.2526508936       -3.1102283728
 C          3.1746078649       -1.8427363858       -2.0841255719
 H          4.1331895163       -2.3350909311       -2.2601451782
 H          2.9837909406       -1.1512422862       -2.9099499264
 H          3.9239816323       -4.7308036277        1.0711585259
 H          3.2604396054       -3.4713327987        2.1200599898
 H          4.8624664852       -3.0962618480       -0.4424231288
 H          5.2948771680       -2.6135833740        1.2096208359
 O          3.8746013205       -0.6254158730        1.4134618491
 C          3.2655312082        0.6192685455        1.4483867989
 O          3.3408251419        1.1984928858        2.5517774208
 O          2.0175849573        0.7173252311       -1.9504005925
 C          1.9610596626        2.4432407651        0.3537982850
 C          0.4868251496        2.2654190483        0.0791081689
 C         -0.2255045067        3.0219803474       -0.8409344535
 C         -1.5693850740        2.7714768263       -1.0617921160
 C         -2.2309985936        1.7734945291       -0.3706103759
 C         -1.5300661856        1.0177068569        0.5605047488
 C         -0.1868563838        1.2732602375        0.7816897392
 H          0.3601122125        0.6786458707        1.5048812378
 N         -2.1961783832        0.0033892904        1.2770392042
 S         -2.9375015443       -1.2026375692        0.3666040030
 O         -2.9918862872       -2.3551949819        1.2402513120
 O         -2.2782930244       -1.3899474249       -0.9049069222
 C         -4.5875403810       -0.5814307644        0.1216608437
 C         -5.0830802289       -0.4231511430       -1.1575394029
 C         -6.3711867466        0.0630524083       -1.3208427211
 C         -7.1355869918        0.3802172813       -0.2084204960
 C         -6.6235912713        0.2126059018        1.0698275264
 C         -5.3376125021       -0.2744187608        1.2401499807
 H         -4.9023296831       -0.4229754634        2.2142143067
 H         -7.2209869251        0.4604756385        1.9323187407
 H         -8.1364551390        0.7604384554       -0.3384854590
 H         -6.7709705658        0.1935039968       -2.3135940613
 H         -4.4483984451       -0.6761880021       -1.9919088651
 H         -1.6213595618       -0.4177648463        1.9934907180
 H         -3.2748832633        1.5710638702       -0.5465217242
 H         -2.1086401631        3.3612576870       -1.7871899696
 H          0.2740090322        3.7985887242       -1.3961450661
 H          2.0759119168        2.7955791442        1.3894363328
 C          2.6418447989        3.4258238747       -0.5747734761
 C          2.6031988038        4.8935716232       -0.2759030186
 C          3.8787491978        4.1267289950       -0.1023566156
 H          4.6803939525        4.2882644161       -0.8071884959
 H          4.2173619735        3.9116167764        0.9009772427
 H          2.5323845441        5.5863548005       -1.1007013066
 H          2.0777217970        5.2088023096        0.6127830079
 H          2.6105622747        3.1095290281       -1.6108323545
