  62
        -98.94246283
 C          2.1248407025        1.1166488370        0.0994603516
 C          1.4867116914        0.2055853986       -0.7705380693
 C          1.8447114787       -1.2155745122       -0.6239016397
 C          2.7549916975       -1.5631933642        0.3027654907
 C          3.2400244047       -2.9432871953        0.6623910704
 C          2.1272435627       -3.9704177834        0.9302556492
 C          2.0644468114       -5.0761907028       -0.1236601413
 H          3.0843977310       -5.3698374145       -0.3811466508
 H          1.5733090695       -5.9480792321        0.3142071980
 C          1.3047182129       -4.7077709008       -1.3962421317
 H          0.2381730328       -4.6429360990       -1.1685574223
 H          1.4383621219       -5.5258116407       -2.1083125019
 C          1.7323295857       -3.3994920913       -2.0663166108
 H          2.8144525759       -3.2838614033       -2.0305649600
 H          1.4531026363       -3.4639145703       -3.1202640310
 C          1.0475821176       -2.1535553903       -1.4888669106
 H          0.6841218992       -1.5269398393       -2.3100387406
 H          0.1576118567       -2.4407567290       -0.9170910614
 H          1.1669413336       -3.4577878417        1.0052027088
 H          2.3192871212       -4.4329793742        1.9001211491
 H          3.9050357246       -3.3077521861       -0.1232182993
 H          3.8504436044       -2.8110888268        1.5583698309
 O          3.3950897187       -0.6409196158        1.0794149416
 C          3.0716917711        0.7022211349        1.0314942820
 O          3.6875263819        1.4152155634        1.8519248727
 H          0.1543301413        1.0234368899        1.6347022102
 C         -0.4201550270        1.7818286111        1.1221995302
 C          0.2153603552        2.6841670504        0.2784781510
 C         -0.5565069226        3.6529350321       -0.3520610890
 C         -1.9270330427        3.6953858545       -0.1618118999
 C         -2.5603353149        2.7598747753        0.6359113093
 C         -1.7961740971        1.7926506536        1.2774805793
 N         -2.3889430294        0.7911561343        2.0778189885
 S         -2.2771496119       -0.7794453657        1.4951927978
 O         -3.0491332639       -1.5784156447        2.4242636470
 O         -0.8966706524       -1.1534318081        1.3330079786
 C         -3.1279355007       -0.7142347834       -0.0718934927
 C         -2.4742763491       -0.2258047241       -1.1851108420
 C         -3.1861160081       -0.0977797422       -2.3689460624
 C         -4.5249213987       -0.4523687498       -2.4194535635
 C         -5.1654582404       -0.9419153491       -1.2906928341
 C         -4.4636871314       -1.0689824610       -0.1034619137
 H         -4.9174979526       -1.4459749005        0.7990557158
 H         -6.2063802608       -1.2197726772       -1.3311422449
 H         -5.0712247279       -0.3469074784       -3.3435080038
 H         -2.6809671769        0.2842270173       -3.2415274219
 H         -1.4299382087        0.0416463440       -1.1295404412
 H         -3.3561489692        0.9793854459        2.3062400979
 H         -3.6326893149        2.7729024471        0.7613258486
 H         -2.5117805310        4.4543867358       -0.6584019599
 H         -0.0828197109        4.3730649315       -0.9991818984
 C          1.7109385251        2.5759242478        0.0911257320
 H          2.2054925254        3.0397361565        0.9577788925
 C          2.1993797972        3.2562089574       -1.1725584174
 C          2.6085851198        4.6977363367       -1.1529393665
 C          3.6475255179        3.6253973249       -1.2777849163
 H          4.1462329583        3.4936756544       -2.2262113460
 H          4.2732586470        3.4127095233       -0.4228773060
 H          2.3976991314        5.3056358375       -2.0198887563
 H          2.5404016201        5.2258477464       -0.2138003463
 H          1.7153765971        2.8706538887       -2.0624312979
 O          0.6372471226        0.5645537605       -1.6295582397
