  62
        -98.94892325
 C          2.2417679608        0.8331142619        0.0775060152
 C          1.5884563039        0.1040875726       -0.9448837293
 C          1.9726447409       -1.3074158865       -1.0748953831
 C          2.8661781775       -1.8278446305       -0.2147315465
 C          3.3531606713       -3.2477371014       -0.2342968599
 C          2.5107558448       -4.1578223911        0.6685211667
 C          1.0034835949       -4.0356369725        0.4439538848
 H          0.5178075784       -4.7665311630        1.0953904832
 H          0.6627998553       -3.0499771361        0.7698878211
 C          0.5523045510       -4.2646447681       -1.0052261236
 H          1.3282562549       -4.7949744681       -1.5596725760
 H         -0.3348272590       -4.9015262241       -0.9946556076
 C          0.1712114853       -2.9827190763       -1.7483284706
 H         -0.3872990846       -3.2593644427       -2.6468268567
 H         -0.4919273950       -2.3898472700       -1.1131734224
 C          1.3432100001       -2.0956958614       -2.1886545737
 H          2.0921923060       -2.7028085423       -2.7025851106
 H          0.9549736020       -1.3564772582       -2.8955023340
 H          2.8221575979       -5.1908844226        0.4993960366
 H          2.7216095191       -3.9060398462        1.7106929684
 H          3.3288133563       -3.6154344537       -1.2585490494
 H          4.3855894361       -3.2576341662        0.1208258202
 O          3.4262319524       -1.1119312695        0.7953879122
 C          3.1188079397        0.2267605333        0.9738867225
 O          3.6843696249        0.7607594027        1.9522541512
 O          0.7419960179        0.6132747213       -1.7249885449
 C          1.9399240004        2.3119385022        0.2616747522
 C          0.4509245711        2.4914564830        0.4190067180
 C         -0.3069911624        3.3943839265       -0.3150872044
 C         -1.6848458474        3.4295897474       -0.1817683086
 C         -2.3354937671        2.5535704605        0.6683169609
 C         -1.5817546654        1.6697122537        1.4277397959
 C         -0.2027753218        1.6624219975        1.3226993260
 H          0.3747724729        0.9564579267        1.9080200896
 N         -2.2606169285        0.7024573384        2.2299348710
 S         -2.2764810809       -0.7842188853        1.4199981357
 O         -3.0234947950       -1.6873023473        2.2708100307
 O         -0.9355459812       -1.2186114709        1.0926888284
 C         -3.2062817318       -0.4026714440       -0.0440565601
 C         -4.5839321109       -0.4838396023        0.0236094178
 C         -5.3309521192       -0.1426059525       -1.0916981203
 C         -4.6893426546        0.2770002278       -2.2477781876
 C         -3.3062184016        0.3543109692       -2.2970444962
 C         -2.5502649163        0.0142651823       -1.1853251825
 H         -1.4722150324        0.0761799767       -1.1992130495
 H         -2.8018596668        0.6835945472       -3.1911959919
 H         -5.2699435701        0.5460607636       -3.1161641214
 H         -6.4068298137       -0.2017979506       -1.0557669738
 H         -5.0335651190       -0.8183091087        0.9440982335
 H         -1.8100345441        0.5561346782        3.1244631286
 H         -3.4100478791        2.5388910230        0.7501897963
 H         -2.2599662441        4.1295958643       -0.7676348605
 H          0.1813558324        4.0578069196       -1.0099441896
 H          2.4323446648        2.6113961002        1.1983989708
 C          2.5301709735        3.1098636116       -0.8822317696
 C          2.9330414102        4.5386268518       -0.6773488873
 C          3.9811446617        3.4791408457       -0.8336515001
 H          4.5523417319        3.4463744746       -1.7491695303
 H          4.5402032692        3.1741091858        0.0392932483
 H          2.7893156581        5.2369428998       -1.4877804619
 H          2.7864710748        4.9636139872        0.3040559648
 H          2.1197265770        2.8233982041       -1.8436654125
