  62
        -98.93714509
 C         -1.3987250751       -1.4667946036       -0.2125311755
 C         -2.7381390748       -1.4438878987        0.2519178628
 C         -3.5485161362       -0.2509426579       -0.0607964489
 C         -2.9730742937        0.7571589862       -0.7415498390
 C         -3.5674806740        2.0872459134       -1.1214081995
 C         -3.6461832790        3.0592269139        0.0665754298
 C         -4.1611788710        2.4436968520        1.3649174335
 H         -4.0728183665        3.2000284504        2.1493926609
 H         -3.5174653499        1.6084092397        1.6467301420
 C         -5.6141713268        1.9752886967        1.3322433753
 H         -6.2583289105        2.8211267724        1.0813803510
 H         -5.8729994418        1.6510320442        2.3435787063
 C         -5.9269429613        0.8250954104        0.3722579561
 H         -6.0014512821        1.1775873727       -0.6530993294
 H         -6.9155284836        0.4394833695        0.6386648898
 C         -4.9636317601       -0.3550085266        0.4549135418
 H         -5.4097054388       -1.2055698934       -0.0752832818
 H         -4.8826234689       -0.6794705993        1.4986782806
 H         -4.2813181965        3.9002972915       -0.2167191622
 H         -2.6417622551        3.4436326455        0.2588890283
 H         -2.9130155035        2.5168407525       -1.8827912175
 H         -4.5462798329        1.9458027813       -1.5698381574
 O         -1.6795774955        0.6997347708       -1.1600155621
 C         -0.8591236053       -0.3892485429       -0.9196967248
 O          0.2842182350       -0.2604150557       -1.3922161732
 H          1.9001191319       -2.1027501176       -0.8672584570
 C          1.8416145889       -1.8697519613        0.1840319797
 C          0.6785437728       -2.1491188904        0.8848791351
 C          0.6210930331       -1.8349833595        2.2387461292
 C          1.7018916425       -1.2513832204        2.8743110322
 C          2.8461875781       -0.9352296474        2.1627281852
 C          2.9034187661       -1.2290686710        0.8065966862
 N          4.0392093719       -0.8529122811        0.0585884158
 S          4.4299472102        0.7777114698        0.0564401053
 O          5.3674250882        0.9391175115       -1.0329307708
 O          4.9197435762        1.1359508237        1.3655782844
 C          2.9286492627        1.6763296132       -0.2899615806
 C          2.6348490499        1.9934284673       -1.5998074932
 C          1.4608980013        2.6716874825       -1.8788938808
 C          0.5980509919        3.0085301908       -0.8491467089
 C          0.9038493690        2.6772945658        0.4606814093
 C          2.0816155347        2.0074488369        0.7477696777
 H          2.3534629439        1.7410437983        1.7561219477
 H          0.2252169954        2.9308113282        1.2604833569
 H         -0.3231918466        3.5246421599       -1.0709010395
 H          1.2148210271        2.9224660739       -2.8983858899
 H          3.3305010218        1.7103427835       -2.3735842181
 H          3.9910500114       -1.1729965121       -0.8990699784
 H          3.6846307158       -0.4446145375        2.6305335282
 H          1.6490872873       -1.0251795415        3.9286738470
 H         -0.2875266983       -2.0431355425        2.7866169468
 C         -0.5494754557       -2.6648454761        0.1825054421
 H         -1.1677109053       -3.2071784990        0.9151635067
 C         -0.2341887683       -3.6509662279       -0.9309937379
 C         -1.3015164669       -4.0545706265       -1.9032841029
 C         -0.1154345911       -3.2708373662       -2.3749377470
 H          0.6277589827       -3.7802463931       -2.9716332238
 H         -0.2534526969       -2.2361329678       -2.6441631073
 H         -2.2512850780       -3.5446373343       -1.8308911549
 H         -1.3821203493       -5.0936203921       -2.1848863920
 H          0.4278359628       -4.4399139549       -0.5855765333
 O         -3.2473445330       -2.3864212277        0.9168097362
