  62
        -98.94038139
 C         -2.3441142990       -0.8674675403       -0.2222186392
 C         -3.6004839091       -1.1473494700        0.3680324809
 C         -4.7463796991       -0.4233987703       -0.1924711497
 C         -4.5613698290        0.4223729591       -1.2224547302
 C         -5.6318990489        1.2220709786       -1.9141879507
 C         -5.9672376290        2.5460581091       -1.2137263016
 C         -6.7525074491        2.4100324998        0.0913642684
 H         -7.1037896492        3.4085360500        0.3589057978
 H         -7.6329828091        1.7897695797       -0.0789401813
 C         -5.9397857392        1.8429036005        1.2637294689
 H         -4.8733539392        1.9191606404        1.0384359989
 H         -6.1211442693        2.4444474511        2.1573269585
 C         -6.2681414492        0.3929228807        1.6203031597
 H         -7.2997005193        0.3266801209        1.9729814596
 H         -5.6122657693        0.0844336412        2.4384530699
 C         -6.0819431891       -0.5998659699        0.4650548603
 H         -6.1208267691       -1.6127758697        0.8729900609
 H         -6.8837967391       -0.4845085704       -0.2636058798
 H         -5.0362556190        3.0856642392       -1.0249462218
 H         -6.5616077090        3.1419358786       -1.9101355320
 H         -5.2539032088        1.4472654081       -2.9136794908
 H         -6.5356864589        0.6201494386       -2.0111705005
 O         -3.3409675789        0.6432475288       -1.7797088002
 C         -2.2000329090        0.0324485691       -1.2780855297
 O         -1.1484787489        0.3658522887       -1.8567044198
 O         -3.7550470392       -1.9584020494        1.3201829713
 C         -1.1066805391       -1.5438599999        0.3412026913
 C         -0.1837997092       -0.4921140296        0.9054129208
 C         -0.6569418493        0.3192526710        1.9349483402
 C          0.1362676207        1.3130655113        2.4726225197
 C          1.4207980807        1.5162063711        1.9987774297
 C          1.9004039808        0.7169681405        0.9680953802
 C          1.1015677309       -0.2853763099        0.4330746308
 H          1.4993697410       -0.8903252003       -0.3639081688
 N          3.1844817209        0.9328116302        0.4437944802
 S          4.0770661009       -0.3703057202       -0.1442213389
 O          3.6291522511       -0.6982095610       -1.4738423288
 O          4.0708195909       -1.4508546896        0.8170975917
 C          5.6934400009        0.3790602398       -0.2249858992
 C          6.6181444508        0.1269855404        0.7705356610
 C          7.8578218108        0.7440050104        0.7052571108
 C          8.1485539709        1.6001878998       -0.3460500097
 C          7.2101224310        1.8430135392       -1.3384218799
 C          5.9697662110        1.2280960392       -1.2803017697
 H          5.2119911911        1.3790044587       -2.0316577298
 H          7.4401388611        2.5074065187       -2.1557161703
 H          9.1134930509        2.0796131198       -0.3944149299
 H          8.5906676008        0.5551143309        1.4729875110
 H          6.3499687108       -0.5508739691        1.5648331514
 H          3.7497690308        1.5392614305        1.0220762699
 H          2.0419597507        2.2941461113        2.4159993993
 H         -0.2443748594        1.9327437618        3.2706894493
 H         -1.6607622293        0.1571637212        2.3041463203
 H         -1.4677350492       -2.1643520795        1.1749866617
 C         -0.4555691790       -2.4436272205       -0.6858061381
 C          0.4426527510       -3.5558457803       -0.2367767473
 C         -0.9075823390       -3.8666549106       -0.8076900173
 H         -0.9632492089       -4.3066290212       -1.7920150970
 H         -1.6824164790       -4.2015119702       -0.1335805372
 H          1.3212192010       -3.7763620406       -0.8247371071
 H          0.5887530709       -3.6797214596        0.8258835227
 H         -0.1979483089       -1.9221340711       -1.6012579684
