  62
        -98.94128066
 C          2.5230496746       -0.3385105672       -0.0385051688
 C          2.1479586338       -1.3610013032        0.8622180800
 C          1.4502319663       -2.5218402245        0.2868052036
 C          1.2180461552       -2.5593143913       -1.0367223393
 C          0.5702127826       -3.6525602034       -1.8510102830
 C         -0.6756630698       -4.3332575291       -1.2716931412
 C         -1.5988607244       -3.4149672248       -0.4571281736
 H         -1.3173483957       -2.3685366961       -0.5958024527
 H         -2.6219156740       -3.5242565595       -0.8236279458
 C         -1.5990681161       -3.7460523000        1.0369713985
 H         -2.5002755759       -3.3229740470        1.4875458757
 H         -1.6432820614       -4.8313339105        1.1585735522
 C         -0.4110475876       -3.1980586540        1.8258233732
 H         -0.4843975578       -3.5734628022        2.8500364496
 H         -0.4879264853       -2.1080451062        1.8788174336
 C          0.9779776114       -3.5547108059        1.2694457468
 H          0.9853087271       -4.5538067013        0.8393470719
 H          1.6897654791       -3.5269296170        2.0994143683
 H         -0.3755626258       -5.1758871712       -0.6500041420
 H         -1.2283178529       -4.7463882988       -2.1174139630
 H          0.3166307060       -3.1788536151       -2.8024626309
 H          1.3287333516       -4.4133437054       -2.0599847753
 O          1.6187627797       -1.5608220943       -1.8733108341
 C          2.2257640713       -0.4123968658       -1.3982120821
 O          2.4688967602        0.4402779419       -2.2750799634
 O          2.3932181368       -1.3095617585        2.0995326581
 C          3.1222241898        0.9470123996        0.5071613304
 C          2.1389296578        2.0615019176        0.2405175387
 C          2.4729921794        3.2843891047       -0.3249864069
 C          1.4845466624        4.2099267974       -0.6168593274
 C          0.1518038804        3.9293970867       -0.3781728325
 C         -0.1888967196        2.7159864752        0.2101255038
 C          0.8062114321        1.8154976089        0.5449627318
 H          0.5307589718        0.8793508344        1.0090255788
 N         -1.5269234857        2.3737808301        0.4763013485
 S         -1.9311582458        0.7355530929        0.3289817934
 O         -1.6680145736        0.0896092138        1.5902072681
 O         -1.3026341115        0.1641133410       -0.8398564903
 C         -3.6932872181        0.8567639892        0.0839169013
 C         -4.5150648258        0.9728198261        1.1890145707
 C         -5.8815021392        1.1017267014        0.9968326023
 C         -6.4003476686        1.1132280543       -0.2894507755
 C         -5.5634637069        0.9928736911       -1.3887884776
 C         -4.1957512321        0.8649800521       -1.2034800562
 H         -3.5064853024        0.7588861560       -2.0262312357
 H         -5.9693424302        0.9977163536       -2.3875346831
 H         -7.4640578735        1.2131819590       -0.4366003138
 H         -6.5353195199        1.1917448003        1.8491732316
 H         -4.0655634735        0.9486884716        2.1679744118
 H         -2.1881295109        2.9693714207       -0.0034295335
 H         -0.6181933374        4.6371424588       -0.6452254276
 H          1.7554871986        5.1544593695       -1.0639717825
 H          3.5022619264        3.5053947503       -0.5558500836
 H          3.1977711783        0.7990153160        1.5950678634
 C          4.5035929221        1.2016528403       -0.0540645466
 C          5.4988876546        2.0024572865        0.7300763262
 C          5.6801642599        0.5229693213        0.5785353695
 H          6.4703971320        0.1604298501       -0.0613785082
 H          5.4860464664       -0.1084623539        1.4333253768
 H          6.1702694003        2.6566612106        0.1948380671
 H          5.1890531332        2.3779132609        1.6935907935
 H          4.5008083953        1.2973130764       -1.1338810847
