  62
        -98.94293618
 C         -1.9281302473       -0.0445214492       -0.3030279722
 C         -2.8091639499        0.7358850641        0.4853721396
 C         -4.1153930291        0.1262462368        0.7821896932
 C         -4.3890793861       -1.1126503828        0.3374542582
 C         -5.6941918763       -1.8278478786        0.5301752715
 C         -6.6520702069       -1.5606951258       -0.6393377852
 C         -6.7928889038       -0.0809908303       -0.9967654956
 H         -5.8382613026        0.2844664535       -1.3821261760
 H         -7.5161660742       -0.0112617862       -1.8121893370
 C         -7.2453930391        0.8129392441        0.1662403672
 H         -8.0208990751        1.4914028727       -0.1955177567
 H         -7.6912089359        0.2013185969        0.9514446544
 C         -6.1383457909        1.6811208890        0.7670066013
 H         -6.6054939676        2.4216527579        1.4216103519
 H         -5.6269142413        2.2255406301       -0.0306554770
 C         -5.0836423832        0.9380525026        1.5965179379
 H         -5.5761789251        0.3135900980        2.3444492925
 H         -4.4816543427        1.6882874479        2.1171208968
 H         -7.6310592935       -1.9704793220       -0.3841059842
 H         -6.2804918783       -2.0915912346       -1.5190049752
 H         -5.4936497054       -2.8991417946        0.5867878422
 H         -6.1463429825       -1.5030444116        1.4652576482
 O         -3.5082575335       -1.8450452676       -0.3913042854
 C         -2.2726739746       -1.3280928791       -0.7381613438
 O         -1.5771330410       -2.0970064101       -1.4333348632
 O         -2.5443664367        1.8834414504        0.9294240864
 C         -0.5482590098        0.4355573769       -0.7294918692
 C          0.4518448819        0.2508315671        0.3869744327
 C          0.3717709002        0.9825197864        1.5681315928
 C          1.2920422125        0.7812152202        2.5797117602
 C          2.3190139475       -0.1343982038        2.4282523350
 C          2.4084134467       -0.8701606507        1.2534179788
 C          1.4729288828       -0.6781104216        0.2451881538
 H          1.5457668519       -1.2704392315       -0.6549505079
 N          3.4419879845       -1.8090867121        1.0682426959
 S          4.4216748037       -1.6582108470       -0.2809264143
 O          3.6643602203       -1.9226859896       -1.4766460803
 O          5.5456652045       -2.5302318273       -0.0229087416
 C          4.9514947106        0.0446998275       -0.2448525784
 C          4.1452789951        1.0117548417       -0.8112082330
 C          4.5203963140        2.3416441360       -0.7059181865
 C          5.6897012615        2.6796880305       -0.0422210559
 C          6.4915494845        1.6962445635        0.5172871263
 C          6.1177079580        0.3655478856        0.4223510739
 H          6.7122140688       -0.4316743039        0.8385638802
 H          7.4022417079        1.9622233721        1.0293584041
 H          5.9774053546        3.7160711117        0.0374679904
 H          3.8947137571        3.1047092973       -1.1402078331
 H          3.2451945977        0.7117925782       -1.3220325147
 H          4.0149533625       -1.9478439945        1.8890516377
 H          3.0407261953       -0.2868862190        3.2166165334
 H          1.2140127978        1.3491969244        3.4942065969
 H         -0.4321609232        1.6910101084        1.6927196977
 H         -0.2497931570       -0.2276660025       -1.5532638549
 C         -0.5481008427        1.8623094807       -1.2426744745
 C          0.5030550040        2.2829334845       -2.2231558539
 C         -0.9186695483        2.1225084573       -2.6701813947
 H         -1.4934646246        3.0068519491       -2.9006554155
 H         -1.1663866796        1.2691639266       -3.2856380404
 H          0.9070973184        3.2806799653       -2.1494884341
 H          1.2161052991        1.5385267478       -2.5461353154
 H         -0.8739460976        2.5866296678       -0.5086923466
