  62
        -98.93764363
 C         -1.4214436183       -0.9907278388        1.0300526327
 C         -2.3962482658       -0.5983050481        0.0803299332
 C         -2.9514995146        0.7529589131        0.2538195728
 C         -2.5097075611        1.5301971515        1.2575468748
 C         -2.9698540909        2.9335925644        1.5263192595
 C         -2.0793171086        3.9660046005        0.8222997824
 C         -1.8262483603        3.6661644051       -0.6554554946
 H         -1.2264462973        4.4888435692       -1.0529897071
 H         -1.2118143250        2.7658508241       -0.7389485559
 C         -3.0974334604        3.5082324005       -1.5014783755
 H         -3.9445551632        3.9628997771       -0.9856646262
 H         -2.9585765419        4.0509913865       -2.4390786461
 C         -3.4428788570        2.0645177654       -1.8714214727
 H         -2.5551844096        1.5723098074       -2.2783875528
 H         -4.1987482123        2.0872619071       -2.6613969857
 C         -3.9938361878        1.1974058712       -0.7325733598
 H         -4.8073322176        1.7234894962       -0.2286325893
 H         -4.3963480001        0.2818610828       -1.1758744834
 H         -2.5464761637        4.9481772162        0.9219291442
 H         -1.1116745891        3.9954911545        1.3287873816
 H         -3.9998768267        3.0401766099        1.1909412913
 H         -2.9284635491        3.1074067085        2.6033220699
 O         -1.5608600507        1.1258139402        2.1396357759
 C         -0.9770820082       -0.1249955424        2.0286762602
 O         -0.0887918163       -0.3495477586        2.8779329578
 H          1.2053310054       -0.8489917484        0.1583512413
 C          0.8873567271       -1.4646172365       -0.6696925234
 C         -0.1224186400       -2.4019509338       -0.4582686983
 C         -0.5117643491       -3.1857503995       -1.5353581699
 C          0.0756898588       -3.0099877640       -2.7786040951
 C          1.0296633686       -2.0342291286       -2.9917897329
 C          1.4313119483       -1.2424081558       -1.9210037444
 N          2.3836700382       -0.2261648504       -2.0833875877
 S          2.3003297828        1.1709241227       -1.1601073817
 O          0.9496527981        1.4804599159       -0.7566301744
 O          2.9674365576        2.1699210481       -1.9703767029
 C          3.3374855366        0.7947844852        0.2367436859
 C          2.8302075817        0.7932842127        1.5194652410
 C          3.6746772671        0.4793787383        2.5738079229
 C          5.0052825171        0.1798860539        2.3289855938
 C          5.5028030672        0.1938600089        1.0339318098
 C          4.6632680259        0.5030038350       -0.0228123328
 H          5.0091977620        0.5305703500       -1.0425424973
 H          6.5389239164       -0.0378755017        0.8469701806
 H          5.6563878646       -0.0657521182        3.1530563396
 H          3.2756142718        0.4635926965        3.5755327297
 H          1.7868291631        1.0161403119        1.6853900083
 H          2.6484790222       -0.0372362753       -3.0387422157
 H          1.4506682895       -1.8747457260       -3.9728109699
 H         -0.2441836579       -3.6276397278       -3.6044359052
 H         -1.2958837913       -3.9141867836       -1.4397003197
 C         -0.7225610918       -2.3450076209        0.9265158274
 H          0.1237699256       -2.2785832287        1.6297427154
 C         -1.6133114270       -3.4481742002        1.4737472477
 C         -2.7594808439       -4.0876579835        0.7538547651
 C         -1.5319753838       -4.8898205539        1.0705224415
 H         -1.6035199736       -5.6342389307        1.8497740060
 H         -0.8606050327       -5.1600518177        0.2719804611
 H         -3.6563572086       -4.2836395463        1.3245210756
 H         -2.9613207785       -3.7746522439       -0.2570013741
 H         -1.7804416851       -3.2651604069        2.5335193724
 O         -2.7947994056       -1.3281339182       -0.8622657406
