  62
        -98.92731394
 C         -2.1556373096       -0.4243856570        0.7471758930
 C         -3.3037111737       -0.9187846113        0.0840168142
 C         -4.4437998027        0.0148682746       -0.0480203786
 C         -4.3422814490        1.2563340434        0.4564424324
 C         -5.3534516690        2.3750722542        0.4342598570
 C         -6.8080797964        1.9981259763        0.7555881575
 C         -7.7368198295        2.0665379129       -0.4580238686
 H         -8.7602091578        2.2148800179       -0.1062712311
 H         -7.4667369076        2.9418830994       -1.0523787755
 C         -7.7306492362        0.8275933479       -1.3518226649
 H         -8.2369408174        0.0081764237       -0.8370521169
 H         -8.3158554123        1.0614247045       -2.2442847660
 C         -6.3465340540        0.3415962127       -1.7862751471
 H         -5.7067585334        1.1862556970       -2.0392443892
 H         -6.4707699910       -0.2479398094       -2.6970936190
 C         -5.6528339908       -0.5488579022       -0.7444577261
 H         -6.3751025629       -0.8717202129        0.0107135246
 H         -5.2919353949       -1.4636822913       -1.2246292832
 H         -6.8433553935        1.0072345552        1.2054562108
 H         -7.1768068028        2.7042014844        1.5014778091
 H         -4.9872779729        3.0994727978        1.1654101292
 H         -5.3043723316        2.8665784522       -0.5406361175
 O         -3.2089955183        1.6946895592        1.0793903301
 C         -2.1054086220        0.8809497925        1.2403364412
 O         -1.1546106222        1.4222213175        1.8425948997
 H          1.7300521336       -0.6518606021        1.0079751113
 C          1.3709179972       -0.8485659544        0.0089517240
 C          0.0352001028       -1.1610300784       -0.1982935405
 C         -0.4076935285       -1.3878837888       -1.4979705749
 C          0.4713608934       -1.2972945555       -2.5612834135
 C          1.8013516877       -0.9785667071       -2.3516301291
 C          2.2561540274       -0.7570155636       -1.0566410394
 N          3.6143084244       -0.4832016983       -0.8194716824
 S          4.0457630553        0.5774929710        0.4213191667
 O          3.9173712084       -0.1078923024        1.6824454116
 O          3.3283583602        1.8251980463        0.2835552230
 C          5.7723333024        0.8075364972        0.0394501307
 C          6.6645369553       -0.1856680452        0.3974607502
 C          8.0041454026       -0.0289728504        0.0797601717
 C          8.4274007833        1.1117785581       -0.5863618054
 C          7.5209665942        2.1009599269       -0.9368125095
 C          6.1790468224        1.9496429039       -0.6236779629
 H          5.4396058612        2.6952719866       -0.8686077097
 H          7.8532891223        2.9881933488       -1.4512637734
 H          9.4707861726        1.2319772293       -0.8315629655
 H          8.7121533832       -0.7946320197        0.3529894314
 H          6.2907792401       -1.0491204313        0.9224081165
 H          4.1167189163       -0.2628907616       -1.6692291091
 H          2.4846222961       -0.9049144137       -3.1841221137
 H          0.1159618116       -1.4728235907       -3.5655451887
 H         -1.4439095489       -1.6406288631       -1.6620342028
 C         -0.9035888519       -1.2542770095        0.9775808021
 H         -0.3985062338       -0.7775665918        1.8339305743
 C         -1.2061074196       -2.6930059269        1.3782195838
 C         -0.9000642451       -3.8765112141        0.5155539015
 C         -0.0783873736       -3.6143509971        1.7393091743
 H         -0.1937305299       -4.2629197984        2.5945689705
 H          0.9260960404       -3.2417962365        1.5998846774
 H         -1.6040080253       -4.6943507400        0.5259665318
 H         -0.4488506128       -3.7028527239       -0.4482268681
 H         -2.1022791969       -2.7612015606        1.9865055985
 O         -3.3976529828       -2.0801346828       -0.3886269706
