  62
        -98.93793625
 C         -1.6527150577       -1.0173669566       -0.0828259393
 C         -2.9739666595       -1.2726404915        0.3480031661
 C         -3.9602953418       -0.1975569288        0.1316864073
 C         -3.5649007517        0.9382986149       -0.4711966949
 C         -4.3764066778        2.1669087349       -0.7960408413
 C         -5.7720760807        1.9323655428       -1.3942014133
 C         -6.9111216188        2.2871503597       -0.4368359592
 H         -6.6411111318        3.1976738325        0.1021262541
 H         -7.8046763398        2.5096945685       -1.0243221443
 C         -7.2794648167        1.1962418146        0.5673562446
 H         -7.9945981972        1.6250125279        1.2733866615
 H         -7.7872649510        0.3818484638        0.0459704908
 C         -6.1069501244        0.6072470129        1.3543237722
 H         -6.5071788631        0.1728723438        2.2729396605
 H         -5.4124810274        1.3924840009        1.6505687950
 C         -5.3564134604       -0.5021931373        0.6022923599
 H         -5.9499034744       -0.8413139310       -0.2517455258
 H         -5.2434073342       -1.3751416695        1.2528682342
 H         -5.8644492946        0.8997987865       -1.7274157419
 H         -5.8660528946        2.5655608605       -2.2779823135
 H         -4.4583983511        2.7771852234        0.1067791340
 H         -3.7620800591        2.7332195324       -1.4996373619
 O         -2.2759896214        1.1403458277       -0.8698258230
 C         -1.2921491443        0.1846930232       -0.6874411983
 O         -0.1661386521        0.5212481564       -1.0982734255
 O         -3.3174653250       -2.3524965680        0.9011686572
 C         -0.5909698491       -2.0841233106        0.1137345823
 C          0.5413408850       -1.5337390282        0.9441184884
 C          0.2489432470       -0.9939286979        2.1952746598
 C          1.2477354370       -0.4723594698        2.9931324459
 C          2.5617374806       -0.4691878439        2.5564753369
 C          2.8654175775       -1.0091300069        1.3138224022
 C          1.8602350663       -1.5473895051        0.5197967480
 H          2.1290380817       -1.9520492365       -0.4410140794
 N          4.1948404286       -1.0426439651        0.8491706935
 S          4.5779332860       -0.2885992664       -0.5969425065
 O          3.8337610695       -0.8842268662       -1.6747855137
 O          6.0193157376       -0.3834185039       -0.6865984320
 C          4.1132739888        1.4156230912       -0.3468258506
 C          2.7862398620        1.7823471225       -0.4458118080
 C          2.4399437402        3.0973456660       -0.1724793554
 C          3.4130323870        4.0143936073        0.1920950428
 C          4.7419149997        3.6279938226        0.2852129404
 C          5.0962211680        2.3158725558        0.0191273050
 H          6.1160857038        1.9707744700        0.0756948341
 H          5.4986444957        4.3427929129        0.5660257737
 H          3.1334387111        5.0348157069        0.4026297452
 H          1.4034212092        3.3860141840       -0.2488830517
 H          2.0367924941        1.0621787452       -0.7347082262
 H          4.8735764429       -0.7730014423        1.5481937751
 H          3.3447410956       -0.0560140689        3.1742176138
 H          1.0032503264       -0.0586110746        3.9597394023
 H         -0.7791651999       -0.9897541267        2.5312498061
 H         -1.0820208901       -2.8831824115        0.6887404172
 C         -0.1519329253       -2.6482573200       -1.2206442162
 C          0.3901159613       -4.0428080489       -1.3036891167
 C         -0.9679777769       -3.7322482440       -1.8557152569
 H         -1.1001494957       -3.7177574568       -2.9272599960
 H         -1.8339460615       -4.0828607783       -1.3132081012
 H          1.1952310887       -4.2400614252       -1.9955966012
 H          0.4472199554       -4.6116295168       -0.3879186258
 H          0.2755571267       -1.8974931385       -1.8769086182
