  62
        -98.94065338
 C          1.5404173702        1.1950599507       -0.0079182803
 C          2.6403103604        0.9398663411        0.8465807595
 C          3.3911599909       -0.3049710586        0.6099276194
 C          2.9927855110       -1.1392662588       -0.3683623605
 C          3.5155967315       -2.4950215786       -0.7954806605
 C          4.8847649118       -2.9858179381       -0.3321284807
 C          6.0697625814       -2.1973724776       -0.8881581609
 H          6.9809582016       -2.5745009873       -0.4186562010
 H          6.1446811613       -2.3915106576       -1.9612006009
 C          6.0028739308       -0.6840888876       -0.6974351009
 H          5.1535157906       -0.2810274180       -1.2528391408
 H          6.9066483906       -0.2520326673       -1.1357837511
 C          5.9181880409       -0.2103822076        0.7523547791
 H          6.0425798604        0.8759003624        0.7503713590
 H          6.7412032811       -0.6388706573        1.3275652190
 C          4.5972702111       -0.5237667281        1.4769202893
 H          4.5995487115       -1.5314542681        1.8854260393
 H          4.5007812409        0.1696712319        2.3173572193
 H          4.9810821821       -4.0163949480       -0.6846329407
 H          4.9263857519       -3.0196649980        0.7524738693
 H          3.4890214913       -2.4931913086       -1.8898295805
 H          2.7628707118       -3.2213269589       -0.4693819104
 O          1.9142844108       -0.8582237692       -1.1558979503
 C          1.1747192604        0.3054935305       -1.0158804003
 O          0.2464443503        0.4132276501       -1.8394391001
 O          2.9789810603        1.7179081813        1.7773358294
 C          0.7144395698        2.4481084104        0.2352707297
 C         -0.6399771200        1.9904227899        0.7143523999
 C         -0.8012773897        1.6072567398        2.0433930000
 C         -1.9974202594        1.0740566294        2.4856442502
 C         -3.0499298494        0.8850268090        1.6060828403
 C         -2.8924274498        1.2537890990        0.2771762903
 C         -1.7051278400        1.8274599994       -0.1568811499
 H         -1.6000331103        2.1021735695       -1.1940387599
 N         -3.9322767498        1.0087674186       -0.6382344396
 S         -4.6377826792       -0.5078050717       -0.5770048794
 O         -5.0694423593       -0.7870664519       -1.9293440294
 O         -5.6838125991       -0.5045477720        0.4172915007
 C         -3.3590072887       -1.6530492312       -0.0784744796
 C         -3.6238911082       -2.5385469013        0.9474073405
 C         -2.6428565978       -3.4380731709        1.3312572904
 C         -1.4143233979       -3.4346084604        0.6887823102
 C         -1.1642162184       -2.5401013804       -0.3398105099
 C         -2.1435416588       -1.6419238207       -0.7330627098
 H         -1.9440162592       -0.9350729907       -1.5230489998
 H         -0.2078723285       -2.5189438600       -0.8392356700
 H         -0.6472759976       -4.1303344401        0.9910298101
 H         -2.8364876975       -4.1346868909        2.1310075404
 H         -4.5887779382       -2.4996719816        1.4265962306
 H         -3.6895798600        1.2477119387       -1.5891967896
 H         -3.9840239092        0.4517122786        1.9257271704
 H         -2.1094656991        0.7886235894        3.5204109402
 H          0.0325384104        1.7184622802        2.7222513799
 H          1.2155900597        2.9761592906        1.0569269197
 C          0.6714093893        3.3545932803       -0.9761290403
 C          0.1760726187        4.7606790901       -0.8217039302
 C          1.6310120088        4.5012948207       -1.0686319204
 H          2.0432756186        4.7505433008       -2.0350185705
 H          2.3220641689        4.6425095210       -0.2506750505
 H         -0.4123594015        5.1921811499       -1.6170437202
 H         -0.1224505212        5.0763533301        0.1664730598
 H          0.4392912693        2.8336316802       -1.8971821802
