  62
        -98.92972170
 C          2.6570436308        1.2387384784       -0.1837903708
 C          2.4717669824        0.0784872861       -0.9701581925
 C          3.3531402459       -1.0741335236       -0.6786296611
 C          4.2622640139       -0.9702061641        0.3073691958
 C          5.2196136986       -2.0169231398        0.8115682554
 C          4.5304506506       -3.0760886206        1.6874061663
 C          3.1960948434       -3.5863331619        1.1495704980
 H          2.7615770648       -4.2421266284        1.9086172979
 H          2.5148556321       -2.7426354844        1.0235677962
 C          3.2793525967       -4.3737349466       -0.1559610980
 H          3.9303038522       -5.2387919860       -0.0112282640
 H          2.2754891508       -4.7467308719       -0.3744030304
 C          3.7724119256       -3.5946890195       -1.3771333238
 H          3.5500670040       -4.2003509427       -2.2606466185
 H          4.8515142985       -3.4699089611       -1.3536315399
 C          3.0898408820       -2.2474970374       -1.5925322082
 H          3.3303679696       -1.8932044210       -2.6023850186
 H          2.0036456202       -2.3933550642       -1.5914524394
 H          4.3451446506       -2.6328185928        2.6688752822
 H          5.2171469626       -3.9137873417        1.8198660874
 H          5.9625057039       -1.4944555834        1.4182500593
 H          5.7397655927       -2.4802983493       -0.0214449637
 O          4.4011383113        0.1676387754        1.0464784704
 C          3.6224648444        1.2831170483        0.8261700406
 O          3.8805229375        2.2463714601        1.5756677596
 O          1.6070796411       -0.0279236754       -1.8802250686
 C          1.8435894637        2.5111450634       -0.3615682808
 C          0.5420445795        2.4300370543        0.3941615210
 C          0.1762992427        3.4156908848        1.3022812822
 C         -1.0251946872        3.3316103271        1.9850387423
 C         -1.8827363247        2.2655960130        1.7801517308
 C         -1.5261144766        1.2752362959        0.8736201541
 C         -0.3229887669        1.3637843284        0.1885110439
 H         -0.0512237717        0.5981968305       -0.5239197466
 N         -2.3789372081        0.1668224120        0.6628958013
 S         -3.9286951665        0.5174404834        0.0831154819
 O         -3.8452154652        1.1320683683       -1.2249158044
 O         -4.6359954248        1.2683274930        1.0883978090
 C         -4.6124069782       -1.1219020303       -0.0425703108
 C         -4.6219530635       -1.7654597107       -1.2648256261
 C         -5.1339914058       -3.0514244448       -1.3405303160
 C         -5.6212942440       -3.6685549704       -0.1983992666
 C         -5.6033385844       -3.0094420861        1.0219837240
 C         -5.0937119853       -1.7236127720        1.1042781059
 H         -5.0662891562       -1.1699078102        2.0280375035
 H         -5.9844772176       -3.4926277147        1.9071496446
 H         -6.0196152271       -4.6689564555       -0.2607315767
 H         -5.1504948495       -3.5654830272       -2.2881261475
 H         -4.2400440858       -1.2449383254       -2.1287205845
 H         -1.9493712979       -0.4898625400        0.0221846239
 H         -2.8254188755        2.1973874302        2.2974262247
 H         -1.2970103618        4.1045110545        2.6881076932
 H          0.8448559039        4.2459521974        1.4786877673
 H          2.4492159055        3.3018138759        0.1084394368
 C          1.6600487930        2.8949587179       -1.8250870649
 C          0.3404022194        2.9066619298       -2.5313704753
 C          1.0080840954        4.1993655819       -2.1773456972
 H          1.4362937743        4.7986209600       -2.9664454101
 H          0.5809197686        4.7729486853       -1.3681753455
 H          0.3262201729        2.5940965348       -3.5646001697
 H         -0.5465970233        2.6234714255       -1.9853828071
 H          2.5165681608        2.6061069581       -2.4259964108
