  62
        -98.94075305
 C         -2.0105767386       -1.3335779446        0.3700306897
 C         -2.4958926070       -0.6323364263       -0.7617832240
 C         -3.7068142788        0.1762474614       -0.5430060234
 C         -4.2647394949        0.2217603802        0.6795513108
 C         -5.4650148014        1.0438012163        1.0479483958
 C         -5.0520772491        2.4317124588        1.5576118699
 C         -4.0481925415        3.1482697401        0.6540846064
 H         -3.1032292999        2.5995907603        0.6624206557
 H         -3.8532035828        4.1277273240        1.0965260464
 C         -4.5148226795        3.3268689257       -0.7974617979
 H         -4.2894212637        4.3474541958       -1.1139862836
 H         -5.5965601803        3.2010163658       -0.8566814279
 C         -3.8400179444        2.3903169061       -1.8016575329
 H         -2.7544337660        2.4441289483       -1.6827499525
 H         -4.0749789187        2.7462021508       -2.8083496830
 C         -4.2606420092        0.9170297818       -1.7273771302
 H         -3.8582083676        0.4140362133       -2.6115843167
 H         -5.3497367489        0.8431953061       -1.7549710464
 H         -4.6019509348        2.3180527428        2.5466336962
 H         -5.9503357163        3.0428751580        1.6619115447
 H         -6.1123792702        1.1420338153        0.1787996106
 H         -6.0090490315        0.5237701430        1.8383548809
 O         -3.7560858184       -0.4441693626        1.7478018466
 C         -2.6110227795       -1.2149287699        1.6257934389
 O         -2.2260078799       -1.7300649536        2.6948313570
 H          0.2324263520        0.1712826429        0.9489912150
 C          0.7214558130       -0.2142517633        0.0618870722
 C          0.3283278313       -1.4494985487       -0.4409127112
 C          0.9655761528       -1.9351490858       -1.5741209747
 C          1.9495179838       -1.1878751158       -2.1989554379
 C          2.3233051260        0.0487854589       -1.7080460040
 C          1.7001709577        0.5389015583       -0.5667418631
 N          2.0805515662        1.7901663246       -0.0521827136
 S          3.7148916247        2.1349631505        0.0452585133
 O          3.8374684277        3.0769504386        1.1360107108
 O          4.1934928554        2.5917998549       -1.2355838388
 C          4.4967124978        0.5865481419        0.4635465050
 C          5.4139633649        0.0213214088       -0.3985059433
 C          5.9828228526       -1.1979549528       -0.0665649777
 C          5.6229011389       -1.8292285791        1.1136841257
 C          4.7024897159       -1.2465253473        1.9717258701
 C          4.1324026425       -0.0268726140        1.6458852945
 H          3.4178153829        0.4545947823        2.2944923011
 H          4.4237093402       -1.7384292449        2.8898920054
 H          6.0618737086       -2.7806930983        1.3691010899
 H          6.7005027612       -1.6523083205       -0.7303621478
 H          5.6628930404        0.5453158689       -1.3068541025
 H          1.5977410620        2.0530340937        0.7937868050
 H          3.0721573193        0.6506529409       -2.1968496628
 H          2.4268775329       -1.5714285235       -3.0876344875
 H          0.6725490983       -2.8858086833       -1.9872846748
 C         -0.7582023433       -2.1913628952        0.2990261456
 H         -0.4326152304       -2.2998687751        1.3470671599
 C         -0.9938713517       -3.6004815744       -0.2241180729
 C         -2.3251419825       -4.2706249802       -0.0645444579
 C         -1.8410281427       -3.8810514138       -1.4273162444
 H         -1.5288539747       -4.6654814697       -2.1013383150
 H         -2.3034631550       -3.0408683050       -1.9199287993
 H         -3.1257632840       -3.6964965705        0.3793510042
 H         -2.3434218071       -5.3177919642        0.1979697252
 H         -0.1224117853       -4.2325734683       -0.0843499602
 O         -1.9591352105       -0.6693967290       -1.8979557210
