  62
        -98.93956954
 C         -2.3909864285       -0.4193894666       -0.3456789700
 C         -3.5934216177       -1.0121104849        0.1127127269
 C         -4.5930427013       -0.0941219276        0.6733514490
 C         -4.3060384714        1.2179105921        0.7564286806
 C         -5.2456381147        2.2704564283        1.2678854911
 C         -6.0836713165        2.8692886350        0.1296067599
 C         -6.7433775506        1.8225950014       -0.7681733623
 H         -7.3328031111        2.3594300333       -1.5145982376
 H         -5.9668153038        1.2737368449       -1.3056959531
 C         -7.6444425776        0.8263159927       -0.0252978216
 H         -7.9083372049        1.2246730213        0.9550319896
 H         -8.5730979395        0.7074540344       -0.5874409679
 C         -7.0432161954       -0.5706017186        0.1409202651
 H         -6.6915855954       -0.9356379556       -0.8273526716
 H         -7.8363017717       -1.2444126751        0.4759436565
 C         -5.8908691491       -0.6860580568        1.1468186086
 H         -6.1895791894       -0.2465684796        2.1007708095
 H         -5.6938503410       -1.7502851107        1.3062497595
 H         -6.8501797301        3.5116048273        0.5669492596
 H         -5.4324114742        3.4902250349       -0.4897712154
 H         -5.8972429772        1.8327505485        2.0216580008
 H         -4.6542588920        3.0636902737        1.7282751444
 O         -3.1292583200        1.7460590662        0.3361341275
 C         -2.1445119959        0.9489211138       -0.2300748651
 O         -1.1272199663        1.5740737062       -0.5833399740
 H          1.1240680847       -0.0601782697       -1.1255986096
 C          1.0211273586       -0.6336004255       -0.2179720060
 C         -0.1465898501       -1.3391838586        0.0221138451
 C         -0.2594215828       -2.0585728059        1.2092651726
 C          0.7691647331       -2.0642184840        2.1315155911
 C          1.9279687759       -1.3443194967        1.8966464780
 C          2.0488487223       -0.6205031344        0.7185125808
 N          3.2035331160        0.1475730408        0.4842524723
 S          4.7037989150       -0.5280852233        0.8526672637
 O          4.8150221778       -1.8496384816        0.2749928016
 O          4.9064700885       -0.4497842950        2.2780120930
 C          5.7950592771        0.6115162081        0.0261583776
 C          6.3812410326        0.2522558681       -1.1722048157
 C          7.2110247989        1.1608211867       -1.8106992483
 C          7.4359182017        2.4064287460       -1.2445365373
 C          6.8390605466        2.7527938428       -0.0411102092
 C          6.0099970986        1.8488531645        0.6033506302
 H          5.5315310129        2.0711846042        1.5428504806
 H          7.0174106163        3.7219879062        0.3960964765
 H          8.0821583238        3.1114041873       -1.7432217973
 H          7.6781146967        0.8943416171       -2.7451364346
 H          6.1827286623       -0.7293625797       -1.5716523003
 H          3.2035885299        0.5579646080       -0.4394463339
 H          2.7372550665       -1.3371401362        2.6087788071
 H          0.6697661797       -2.6306395691        3.0455805645
 H         -1.1705236946       -2.6089278759        1.4004715953
 C         -1.3181701222       -1.3245911046       -0.9286015473
 H         -1.7601059429       -2.3305117921       -0.9362531646
 C         -0.9613590607       -0.9379638717       -2.3478736596
 C         -0.2038944857       -1.9058726405       -3.2056803838
 C         -1.6485843181       -1.6254588620       -3.4878053485
 H         -1.9004955828       -1.0449224646       -4.3626200773
 H         -2.3744165505       -2.3881810297       -3.2466473614
 H          0.5370496009       -1.5206578640       -3.8895202562
 H          0.0536714899       -2.8597481539       -2.7704500064
 H         -0.7500225932        0.1183796901       -2.4625604085
 O         -3.8189946212       -2.2509182020        0.0557735908
