  62
        -98.93112429
 C         -2.2601085201       -0.5607399011       -0.3436172990
 C         -3.0186295501        0.6315966888       -0.4081742100
 C         -4.3133410601        0.6340433194        0.3098658699
 C         -4.6765182402       -0.4553930601        1.0099403107
 C         -5.9503878302       -0.6911241495        1.7766402808
 C         -7.1428039101       -1.0027605802        0.8571289309
 C         -7.2484376701       -0.1170179612       -0.3817722998
 H         -6.3268769000       -0.1999358917       -0.9609823297
 H         -8.0573303200       -0.5106236817       -1.0031008096
 C         -7.5450118101        1.3552173590       -0.1066096410
 H         -7.6710420400        1.8468587882       -1.0747062514
 H         -8.4924412401        1.4346166194        0.4312822389
 C         -6.4760671902        2.1181871696        0.6782160485
 H         -6.5223280402        1.8784700105        1.7370130587
 H         -6.7085401002        3.1836177396        0.5912557276
 C         -5.0531074701        1.9416241092        0.1574917788
 H         -4.4143706402        2.6982237896        0.6287813782
 H         -5.0323809200        2.1754459984       -0.9129659514
 H         -8.0603088802       -0.9251941998        1.4428114708
 H         -7.0453971501       -2.0371290005        0.5181176617
 H         -5.7730160803       -1.5552529190        2.4206827815
 H         -6.1649692903        0.1596896610        2.4162180501
 O         -3.8927550902       -1.5710038300        1.0746589316
 C         -2.6906110201       -1.6569514805        0.4070406118
 O         -2.0980433601       -2.7473354604        0.5499678727
 O         -2.6608226200        1.6614740683       -1.0335335908
 C         -0.9347563000       -0.7494110817       -1.0623230088
 C          0.2172251299       -0.2549740710       -0.2285704091
 C          0.2468683399        1.0384522994        0.2844755299
 C          1.3334505798        1.4784147800        1.0188279396
 C          2.4110865098        0.6413924002        1.2554203704
 C          2.3819494099       -0.6547349302        0.7620559214
 C          1.2907971699       -1.0949708708        0.0282510917
 H          1.2780775200       -2.1085070711       -0.3514377175
 N          3.5064399299       -1.4966154500        0.9779189322
 S          4.6808514699       -1.2828673710       -0.2164951479
 O          4.0750606301       -1.1824747620       -1.5268169380
 O          5.6278371299       -2.3607660908       -0.0374755770
 C          5.4206588399        0.2683088194        0.2345272609
 C          6.2844867698        0.2971326603        1.3119565910
 C          6.8383161598        1.5093960506        1.6911091801
 C          6.5179280898        2.6639096600        0.9919798891
 C          5.6494569299        2.6168678092       -0.0880312409
 C          5.0923031299        1.4075847588       -0.4731436500
 H          4.4110942800        1.3235345882       -1.3046410800
 H          5.4011668099        3.5155254787       -0.6294469216
 H          6.9483981798        3.6069145003        1.2900456584
 H          7.5148733497        1.5509785112        2.5294629801
 H          6.5075104998       -0.6255044393        1.8216883117
 H          3.2554542299       -2.4766639800        0.9978395229
 H          3.2605871298        0.9760471706        1.8281314402
 H          1.3434830398        2.4850270503        1.4078049089
 H         -0.5900696501        1.6932121592        0.0934502593
 H         -0.8212197700       -1.8414289518       -1.1606523779
 C         -0.9266674899       -0.1793774228       -2.4747727592
 C         -0.1736367899        1.0460053469       -2.8853805801
 C          0.3064676902       -0.3034117035       -3.3217246390
 H          0.1966289603       -0.5857922843       -4.3580923688
 H          1.2003739002       -0.6926402131       -2.8539653187
 H         -0.6392660598        1.6944462863       -3.6116345507
 H          0.3990481101        1.5716822675       -2.1387414205
 H         -1.8754158798       -0.3459895232       -2.9757651992
