  62
        -98.94544805
 C          2.4475907586        1.0085645096        0.1232276220
 C          2.0594078487        0.1068308388       -0.8972275263
 C          2.6598094946       -1.2311894681       -0.8219417302
 C          3.5250220524       -1.5248354902        0.1654496843
 C          4.2182355075       -2.8449046201        0.3694586317
 C          3.3752378266       -3.8793514023        1.1287143651
 C          2.2076234727       -4.4763255623        0.3413131494
 H          2.5713390464       -4.8541502600       -0.6145652036
 H          1.8416218770       -5.3322039442        0.9120193202
 C          1.0407470345       -3.5068806914        0.1034576726
 H          1.1250288670       -2.6629353325        0.7929542570
 H          0.0977989485       -4.0111154785        0.3296111177
 C          0.9429631051       -2.9716133080       -1.3255112627
 H          0.7180197194       -3.7937539512       -2.0082827196
 H          0.1203648076       -2.2537722421       -1.3678824002
 C          2.2072483362       -2.2560252208       -1.8173314498
 H          3.0001296326       -2.9764940915       -2.0150770730
 H          1.9652469996       -1.7332341619       -2.7455780274
 H          2.9987765708       -3.4184081179        2.0452697779
 H          4.0429798747       -4.6938889616        1.4186843610
 H          4.5187100059       -3.2551846845       -0.5948510136
 H          5.1168446417       -2.6381811748        0.9546720017
 O          3.8866194186       -0.6216623103        1.1163347178
 C          3.3427794003        0.6543464111        1.1313736910
 O          3.7271543379        1.3658009707        2.0826681330
 H          0.3360381063        0.7182714142        1.5342287129
 C         -0.2697329969        1.4167118284        0.9694387294
 C          0.3578027870        2.3661489637        0.1732809409
 C         -0.4347831665        3.2558096615       -0.5413896149
 C         -1.8146135594        3.1921529069       -0.4544155925
 C         -2.4350972101        2.2452744932        0.3393196540
 C         -1.6530431533        1.3449088339        1.0517643942
 N         -2.2566694662        0.3808865301        1.8702487435
 S         -3.7353994369       -0.2919402195        1.4947962249
 O         -4.7815106957        0.6640359768        1.7624702087
 O         -3.7827093484       -1.5148058670        2.2647166678
 C         -3.7035241991       -0.6723394325       -0.2471618697
 C         -4.5698429395       -0.0286552118       -1.1072974532
 C         -4.5349587261       -0.3453595926       -2.4557648661
 C         -3.6423858452       -1.2999621916       -2.9171137926
 C         -2.7842743703       -1.9444288434       -2.0392463504
 C         -2.8103655850       -1.6268913243       -0.6911320611
 H         -2.1599117743       -2.1131934737        0.0188481139
 H         -2.0947437128       -2.6904579513       -2.4007082754
 H         -3.6153267106       -1.5476518700       -3.9664666544
 H         -5.2036573043        0.1512390297       -3.1402005844
 H         -5.2567729976        0.6983097011       -0.7053632625
 H         -1.6227192013       -0.2934031343        2.2691677737
 H         -3.5074463173        2.2015873029        0.4318714200
 H         -2.4173730383        3.8923051555       -1.0122504678
 H          0.0284154599        4.0011473968       -1.1664939309
 C          1.8676544595        2.4098403742        0.1455625507
 H          2.2097542500        2.8682213157        1.0857223650
 C          2.4214419590        3.2123886168       -1.0150142372
 C          2.6408234012        4.6887781971       -0.8833940717
 C          3.8136188224        3.7567516447       -0.9141630047
 H          4.4400863923        3.7403556409       -1.7933607786
 H          4.3498062457        3.5747727437        0.0062879698
 H          2.4653294267        5.3155599582       -1.7448121806
 H          2.3882418440        5.1513554152        0.0588573617
 H          2.1046837496        2.8232334677       -1.9758209216
 O          1.2518235482        0.3973649025       -1.8161233216
