  62
        -98.94542544
 C         -2.4744245087       -1.1972534985       -0.0005373487
 C         -3.2302820284       -0.4565530575        0.9386295025
 C         -3.9222651283        0.7256994295        0.4138696153
 C         -3.8133467187        1.0385270385       -0.8904229814
 C         -4.4761557845        2.2010061304       -1.5787812306
 C         -3.7057646956        3.5228281346       -1.4542915716
 C         -3.7456542982        4.1718435649       -0.0701098838
 H         -3.3533427630        5.1847284876       -0.1801142581
 H         -4.7812122971        4.2568915194        0.2605777158
 C         -2.9213362931        3.4379970609        0.9970232628
 H         -2.2167280514        2.7599128865        0.5079884657
 H         -2.3261277652        4.1615799195        1.5591522709
 C         -3.7540282012        2.6494776108        2.0084395851
 H         -4.3662345421        3.3390372418        2.5935091475
 H         -3.0707559517        2.1416857220        2.6942142179
 C         -4.6712844132        1.5904486518        1.3826721686
 H         -5.5177362839        2.0688587362        0.8911115382
 H         -5.0461963251        0.9468363711        2.1821191849
 H         -4.1406466379        4.2221966405       -2.1720481031
 H         -2.6665914493        3.3513606293       -1.7467241962
 H         -4.5397993499        1.9392899614       -2.6371156540
 H         -5.4868084175        2.3296159859       -1.1903796936
 O         -3.0787977251        0.2982313452       -1.7630778014
 C         -2.3720812070       -0.8195037643       -1.3396563485
 O         -1.7132846170       -1.3792164072       -2.2359569631
 O         -3.3173782334       -0.7653028556        2.1579801435
 C         -1.7043440364       -2.4165811493        0.4733439131
 C         -0.2260798843       -2.2042569821        0.2547580034
 C          0.6077516242       -3.1472650193       -0.3305992463
 C          1.9517997744       -2.8730571916       -0.5186976597
 C          2.4938257939       -1.6639820203       -0.1244795301
 C          1.6700011871       -0.7150780167        0.4672535003
 C          0.3264618759       -0.9944537968        0.6582698111
 H         -0.3145153778       -0.2510146771        1.1176814701
 N          2.2118270890        0.5160082923        0.8817348420
 S          3.0850297554        1.4039733003       -0.2480204259
 O          2.9687543606        2.7799118338        0.1851226278
 O          2.6592949632        1.1155552942       -1.5979384510
 C          4.7614268510        0.8585485299        0.0009039042
 C          5.3139140733        1.0146568489        1.2571483908
 C          6.6164979580        0.5940037975        1.4721088855
 C          7.3408024825        0.0292128840        0.4327193647
 C          6.7731041442       -0.1168312480       -0.8237487189
 C          5.4701112823        0.3017913024       -1.0454764943
 H          4.9851083779        0.2043254006       -2.0039437534
 H          7.3378733125       -0.5552554429       -1.6307198306
 H          8.3541842938       -0.2985536927        0.6026018315
 H          7.0615753887        0.7068300177        2.4475116459
 H          4.7176009418        1.4620262090        2.0346667496
 H          1.5415379747        1.1114490908        1.3471112334
 H          3.5378995340       -1.4447267640       -0.2765039779
 H          2.5863991212       -3.6128305853       -0.9822396608
 H          0.2037150627       -4.0932864004       -0.6510466159
 H         -1.8851177614       -2.4719982226        1.5575100234
 C         -2.2431953432       -3.6739963984       -0.1746709511
 C         -2.1462540948       -4.9904520045        0.5351359954
 C         -3.4738947300       -4.3100882452        0.3964474297
 H         -4.2015958846       -4.7265015093       -0.2837220790
 H         -3.9088880138       -3.8493958087        1.2714414853
 H         -1.9644333288       -5.8792472256       -0.0499104898
 H         -1.6818682402       -4.9996370098        1.5094963327
 H         -2.1412798923       -3.6614667797       -1.2540306846
