  62
        -98.94947873
 C         -0.9696559922       -1.7107674722       -0.2825734651
 C         -2.2604373843       -1.5915135563        0.2808177899
 C         -3.0688599463       -0.4679885328       -0.2045708675
 C         -2.5594510683        0.3711377914       -1.1244117638
 C         -3.2495572534        1.5793736624       -1.6975559070
 C         -3.1481918192        2.8266233631       -0.8077575422
 C         -4.0394083334        2.8143300640        0.4347812108
 H         -5.0593203992        2.5495706818        0.1524275428
 H         -4.0611142948        3.8350818334        0.8221126184
 C         -3.5484067310        1.8804212101        1.5497658103
 H         -3.6105577714        2.3991610412        2.5098346835
 H         -2.4920039865        1.6473500824        1.3916618756
 C         -4.3428893450        0.5813705135        1.6882717081
 H         -5.3607225391        0.8096114132        2.0144367444
 H         -3.8690738928       -0.0262991642        2.4636131854
 C         -4.4208575875       -0.2591756230        0.4080027155
 H         -5.0942469658        0.2104881180       -0.3089328862
 H         -4.8195674327       -1.2424746794        0.6713402974
 H         -3.4221253826        3.6897531615       -1.4195052955
 H         -2.1095333336        2.9554037491       -0.4911968171
 H         -4.2992229050        1.3515783190       -1.8864105410
 H         -2.7634564809        1.7933593671       -2.6518739714
 O         -1.3262226720        0.2015743853       -1.6695513923
 C         -0.4924797344       -0.8237951195       -1.2482346646
 O          0.6219514763       -0.8430372003       -1.8033528573
 O         -2.7138766646       -2.3841058832        1.1520157475
 C         -0.0349874463       -2.7884932467        0.2282748258
 C          1.2445269742       -2.1838222256        0.7566216253
 C          2.4494644890       -2.8780347930        0.7664320702
 C          3.5979511283       -2.2860565192        1.2619711082
 C          3.5810370396       -0.9839459353        1.7286913544
 C          2.3822278661       -0.2813447437        1.7208900101
 C          1.2260376800       -0.8941287514        1.2682936840
 H          0.3032290847       -0.3347097232        1.2922725624
 N          2.3074939049        1.0540403162        2.1584570054
 S          1.4848519517        2.1639093989        1.2176492196
 O          1.9407565347        3.4489458286        1.7117548152
 O          0.0624684230        1.9435815102        1.2973738482
 C          2.0502806103        1.9676778173       -0.4631553741
 C          3.3681708387        1.6440364734       -0.7153173143
 C          3.7935540180        1.5436260291       -2.0294839965
 C          2.9036983830        1.7782417900       -3.0653639789
 C          1.5881369120        2.1163190769       -2.7963423106
 C          1.1569608205        2.2118422825       -1.4839928599
 H          0.1355510821        2.4523856545       -1.2361246672
 H          0.8911090989        2.2924215235       -3.5999470931
 H          3.2354181758        1.6930147916       -4.0882550221
 H          4.8168755981        1.2775681188       -2.2408121571
 H          4.0478607001        1.4675523757        0.1019467626
 H          3.1796743245        1.4432323590        2.4870060816
 H          4.4819644800       -0.5166617901        2.0967307464
 H          4.5239198211       -2.8403392098        1.2686788192
 H          2.4874626819       -3.8846851326        0.3829148954
 H         -0.5652944576       -3.2670019313        1.0662458085
 C          0.2154458968       -3.8301577593       -0.8455261053
 C          0.3687522533       -5.2777537844       -0.4879858633
 C         -0.8755947576       -4.8034254467       -1.1743146135
 H         -1.0341228471       -5.0720542555       -2.2078529824
 H         -1.7859342675       -4.7361593889       -0.5964051140
 H          1.0661231300       -5.8771394581       -1.0537484945
 H          0.2948557640       -5.5484544321        0.5546213328
 H          0.8023926742       -3.4391437005       -1.6689819925
