  62
        -98.94457155
 C         -2.0605161590       -1.1500444313       -0.6230884035
 C         -1.5379515205       -0.0153733892       -1.2896445712
 C         -2.2245240324        1.2600312993       -1.0283685389
 C         -3.2636371226        1.2940633062       -0.1770225191
 C         -4.0306682445        2.5279359543        0.1998754931
 C         -3.4480324557        3.1993320528        1.4502913845
 C         -1.9365079360        3.4226487950        1.3917993653
 H         -1.6522257870        3.9556424537        2.3024873664
 H         -1.4215967446        2.4589036357        1.4188944935
 C         -1.4548916169        4.2130326181        0.1672278569
 H         -2.2886932575        4.7584113977       -0.2777554522
 H         -0.7211630680        4.9513990985        0.4978349485
 C         -0.7726368854        3.3536900411       -0.8986953046
 H         -0.0351308946        2.7100166112       -0.4125442157
 H         -0.2361233962        4.0167616332       -1.5830849532
 C         -1.7070391440        2.4769570514       -1.7429840865
 H         -2.5341189447        3.0805896809       -2.1235271155
 H         -1.1336374232        2.1028491438       -2.5962557171
 H         -3.9525941771        4.1575839418        1.5913437862
 H         -3.6661228850        2.5696755008        2.3162406932
 H         -4.0181119453        3.2242754760       -0.6366354556
 H         -5.0632763141        2.2383760525        0.4041260223
 O         -3.7259524412        0.1896640143        0.4644965287
 C         -3.1295047594       -1.0437103345        0.2701731764
 O         -3.6462656682       -1.9696761565        0.9297769345
 H          0.5881773906       -0.9347613884       -0.1405286825
 C          0.5611213916       -1.7987382197        0.4994918358
 C         -0.4264074770       -2.7554083307        0.3102308038
 C         -0.4463423155       -3.8702647023        1.1385086716
 C          0.4933147044       -4.0091893229        2.1454545116
 C          1.4472770930       -3.0312174820        2.3589380036
 C          1.4765035716       -1.9107198204        1.5335035458
 N          2.4302439801       -0.9044840394        1.7282745679
 S          2.1176050878        0.7243863607        1.4521356110
 O          2.7859612466        1.4068750796        2.5426801425
 O          0.7066241375        0.9833136190        1.3120015112
 C          3.0192675477        1.0611162349       -0.0479173481
 C          4.3627193472        1.3609947365        0.0866355027
 C          5.1182238271        1.6061964698       -1.0471567066
 C          4.5212160775        1.5473128413       -2.2977752069
 C          3.1741379379        1.2464605496       -2.4165483478
 C          2.4109486480        0.9984801064       -1.2847201084
 H          1.3618371184        0.7608023951       -1.3740489791
 H          2.7016275582        1.1980644108       -3.3845916180
 H          5.1069465074        1.7384523839       -3.1831850664
 H          6.1660260768        1.8422668911       -0.9534581859
 H          4.7813857469        1.4105694352        1.0782366929
 H          3.0066039401       -1.0253715801        2.5477427378
 H          2.1617742129       -3.1270329625        3.1626037636
 H          0.4701191655       -4.8787583842        2.7848869999
 H         -1.2156015045       -4.6168485632        1.0052139300
 C         -1.4721437470       -2.5475146002       -0.7558143061
 H         -2.3052608361       -3.2352129818       -0.5371634376
 C         -0.9756209062       -2.8693915468       -2.1578304666
 C          0.4724454640       -2.9831696340       -2.5168887465
 C         -0.3759449143       -4.2148387654       -2.4433010590
 H         -0.6454891933       -4.7173364840       -3.3598349101
 H         -0.2223155835       -4.8765282968       -1.6040298603
 H          0.7753114537       -2.6148251517       -3.4848261357
 H          1.2051864936       -2.8206486545       -1.7420577660
 H         -1.6279898267       -2.4560159162       -2.9199986759
 O         -0.5576715803       -0.0423544063       -2.0777128611
