  62
        -98.94210924
 C         -2.2802063155       -0.7468176945        0.1155638127
 C         -1.6365142159        0.0188170087       -0.8840307741
 C         -1.9425914640        1.4599411054       -0.9097535297
 C         -2.7254688091        1.9813161523        0.0501622419
 C         -3.2301039308        3.3945250528        0.2182429281
 C         -2.3054670781        4.5516248761       -0.1683100982
 C         -0.8312133551        4.3538942895        0.2127991683
 H         -0.4886978592        5.2213363241        0.7806224805
 H         -0.7182133320        3.4790113773        0.8571307612
 C          0.0825141344        4.1874814495       -1.0023968505
 H         -0.2050062645        4.9089333382       -1.7709561628
 H          1.1084753517        4.4128511839       -0.7006973948
 C          0.0860324560        2.7804151048       -1.5939247087
 H          0.7491122107        2.7756142161       -2.4625638785
 H          0.5064598598        2.0921114698       -0.8570593803
 C         -1.2916543444        2.2412530317       -2.0162351417
 H         -1.9352036273        3.0419299417       -2.3738339593
 H         -1.1392619075        1.5292030296       -2.8319986043
 H         -2.6950250348        5.4403861692        0.3319103884
 H         -2.3779003688        4.7370154132       -1.2388470674
 H         -4.1645957394        3.4820136539       -0.3456720665
 H         -3.4894837056        3.4769889507        1.2772503565
 O         -3.2475304989        1.2172664032        1.0549048983
 C         -3.0428519130       -0.1485224102        1.1141102068
 O         -3.5813791685       -0.7106475206        2.0925423785
 H         -0.4138965640       -1.1201194658        1.9096334561
 C          0.1221642684       -1.7981836930        1.2559357493
 C         -0.5823704942       -2.5174437070        0.2979249552
 C          0.1218955766       -3.3882994828       -0.5229906996
 C          1.4985543083       -3.4965426964       -0.4176660769
 C          2.2017967109       -2.7232927619        0.4885970999
 C          1.5009408797       -1.8729345239        1.3325078180
 N          2.2335631260       -1.0004056543        2.1944175444
 S          2.2769048013        0.5511021863        1.5174876125
 O          3.0669892082        1.3543311977        2.4274831525
 O          0.9433283657        1.0521266413        1.2595568970
 C          3.1691917865        0.2747929612        0.0062467390
 C          2.4900165101       -0.0903328207       -1.1395788712
 C          3.2209963299       -0.3488761735       -2.2893230882
 C          4.6029753752       -0.2435132171       -2.2740584868
 C          5.2682662632        0.1237484083       -1.1136966463
 C          4.5462982336        0.3831119773        0.0395120290
 H          5.0150656290        0.6748843461        0.9649687865
 H          6.3431521283        0.2063351309       -1.1038658742
 H          5.1639185736       -0.4484800768       -3.1723081927
 H          2.6973150002       -0.6359538179       -3.1868787764
 H          1.4134267156       -0.1709826450       -1.1327441702
 H          1.8143571790       -0.9200310052        3.1122668438
 H          3.2770915025       -2.7620791393        0.5493179668
 H          2.0320612239       -4.1704904907       -1.0696598653
 H         -0.4067049012       -3.9676386338       -1.2621531455
 C         -2.0621699666       -2.2501599003        0.1815849033
 H         -2.5546045054       -2.5896794587        1.1045733979
 C         -2.7121850397       -2.9299687909       -1.0047549843
 C         -3.1734121170       -4.3518241683       -0.8988525912
 C         -4.1767346950       -3.2399783231       -0.9494104230
 H         -4.7647987790       -3.1130629047       -1.8458014733
 H         -4.7039339391       -2.9803583566       -0.0425845655
 H         -3.0772466787       -4.9914388746       -1.7629799707
 H         -3.0253818625       -4.8565405255        0.0438285907
 H         -2.3091367951       -2.5887530825       -1.9511499742
 O         -0.8601896430       -0.4818397516       -1.7387457375
