  62
        -98.94965270
 C         -1.6869252298       -1.2205312091        0.3406759294
 C         -1.3302271792       -0.1571406593       -0.5210416806
 C         -1.8953079986        1.1535677110       -0.1884975907
 C         -2.6600419187        1.2906595814        0.9095052092
 C         -3.2783222881        2.5706210918        1.4031011191
 C         -4.6074021378        2.9288108924        0.7234326090
 C         -4.4908792275        3.4155981523       -0.7215709010
 H         -5.4605109273        3.8357496327       -0.9961009511
 H         -3.7593493171        4.2225832819       -0.7722299510
 C         -4.1231241380        2.3197667421       -1.7315341909
 H         -4.3031155485        1.3391797822       -1.2851194609
 H         -4.7724174579        2.3986975023       -2.6062450010
 C         -2.6796030279        2.3775488013       -2.2311669508
 H         -2.5225535974        3.3013229312       -2.7921450208
 H         -2.5186726582        1.5372299312       -2.9108686208
 C         -1.6246791880        2.2962415609       -1.1197593307
 H         -0.6480773881        2.1253292904       -1.5795236307
 H         -1.5836107776        3.2337842309       -0.5651451208
 H         -5.2643896483        2.0568881027        0.7631502490
 H         -5.0710546475        3.7213769026        1.3153614389
 H         -3.4617694482        2.4338114719        2.4712853491
 H         -2.5676013877        3.3885761914        1.2788733091
 O         -2.9527745792        0.2496859116        1.7347116892
 C         -2.4770328098       -1.0247891486        1.4712181493
 O         -2.8203343503       -1.8868485584        2.3080268493
 H          0.4980870401       -1.1753684301        1.6332144895
 C          1.0499417399       -1.7423590304        0.8971659596
 C          0.3707320895       -2.5554587701       -0.0012427604
 C          1.1112018293       -3.2818422005       -0.9258627003
 C          2.4904140493       -3.1696625511       -0.9651292502
 C          3.1568467397       -2.3175845514       -0.1035191702
 C          2.4253796100       -1.5957504710        0.8322451497
 N          3.0485996503       -0.6945088313        1.7218924597
 S          2.6451633811        0.9258667689        1.5631464796
 O          3.4706995814        1.6117876385        2.5348407997
 O          1.2219395312        1.0989997496        1.6982399795
 C          3.1933029515        1.3551896386       -0.0799945204
 C          2.4259424314        0.9920799289       -1.1685473704
 C          2.9044571716        1.2687073786       -2.4406933904
 C          4.1305505119        1.8944687880       -2.6029398603
 C          4.8890688020        2.2511935977       -1.4979084703
 C          4.4203545818        1.9750387880       -0.2240610303
 H          4.9726711918        2.2355619477        0.6644699197
 H          5.8419132722        2.7394371972       -1.6245952202
 H          4.4953725521        2.1052776978       -3.5958669503
 H          2.3079452415        0.9868351589       -3.2936165304
 H          1.4718316811        0.5084640194       -1.0238907604
 H          4.0563313303       -0.7780839018        1.7433962998
 H          4.2298127997       -2.2081330620       -0.1522483301
 H          3.0515480291       -3.7391036314       -1.6900963602
 H          0.6065441190       -3.9319164302       -1.6217907604
 C         -1.1359058905       -2.6110070193        0.0828582695
 H         -1.4124226408       -3.2178628192        0.9579579195
 C         -1.7814670007       -3.2080622091       -1.1516189506
 C         -1.9983338414       -4.6872101590       -1.2555219405
 C         -3.1650714210       -3.7718499284       -1.0410358006
 H         -3.8546900008       -3.6114210281       -1.8561276207
 H         -3.6300710510       -3.7501093281       -0.0657769207
 H         -1.8914224416       -5.1583405590       -2.2210215205
 H         -1.6785207718       -5.2994136391       -0.4258614405
 H         -1.5353817004       -2.6596572992       -2.0537690106
 O         -0.5723921292       -0.2965839797       -1.5173299606
