  62
        -98.93027442
 C          2.4519720998        0.9863787606        0.5361971596
 C          2.7553570696       -0.2941895195        1.0615983296
 C          4.1178625995       -0.8077427197        0.8429889596
 C          5.0009127796       -0.0550397099        0.1611120595
 C          6.4544744795       -0.2949101302       -0.1898484406
 C          7.0682540693       -1.6866893403       -0.0610943806
 C          6.5180943190       -2.7229801803       -1.0404884505
 H          6.8457814890       -2.4566418004       -2.0484661305
 H          6.9567378988       -3.6921452703       -0.7931992905
 C          4.9978806290       -2.8607214700       -1.0729021304
 H          4.5505634291       -1.9267226899       -1.4193422204
 H          4.7474602288       -3.6289877700       -1.8095121603
 C          4.3480019390       -3.2587119598        0.2509679497
 H          3.2952788989       -3.4748742796        0.0488782098
 H          4.8106584589       -4.1725693599        0.6288476697
 C          4.3937887293       -2.1908914097        1.3578175096
 H          5.3375627393       -2.2186952399        1.8973047196
 H          3.5986208393       -2.4139900995        2.0753158797
 H          8.1364605993       -1.5749493005       -0.2660389307
 H          6.9798428193       -2.0442278302        0.9604978794
 H          6.5718592395        0.0542920697       -1.2205390907
 H          7.0293866497        0.3961777697        0.4363963693
 O          4.6695198498        1.1794192901       -0.3141286006
 C          3.4031105899        1.7291775303       -0.1618780105
 O          3.2837259100        2.8509097003       -0.6856931606
 O          1.9172033595       -0.9834100993        1.7048597497
 C          1.0377061599        1.4908193008        0.7546949197
 C          0.1387521697        1.0801995609       -0.3834291103
 C          0.4914794997        1.3207259408       -1.7082654903
 C         -0.3544213205        0.9456375909       -2.7357739202
 C         -1.5663653506        0.3348697011       -2.4647508801
 C         -1.9216586405        0.0785809613       -1.1455610900
 C         -1.0663967604        0.4487869512       -0.1165048301
 H         -1.3500853403        0.2338428613        0.9031538799
 N         -3.1279639206       -0.5697282685       -0.8405222799
 S         -3.9378330504       -0.1346211782        0.5756754901
 O         -3.9578205001        1.3048280718        0.7076047600
 O         -3.3756035505       -0.8684858283        1.6811044201
 C         -5.5693328405       -0.7535837280        0.2121928803
 C         -6.5414542804        0.1126896722       -0.2507900797
 C         -7.7958596205       -0.3910227676       -0.5580017896
 C         -8.0539510808       -1.7444773775       -0.4010486095
 C         -7.0678492109       -2.6014446077        0.0654014305
 C         -5.8121437308       -2.1045609879        0.3758076304
 H         -5.0176672309       -2.7291962680        0.7499336404
 H         -7.2728829211       -3.6525629677        0.1890009206
 H         -9.0307281709       -2.1339219974       -0.6408499494
 H         -8.5655692704        0.2727652025       -0.9173277495
 H         -6.2975056502        1.1582078121       -0.3497909798
 H         -3.7544586207       -0.6325727584       -1.6312468399
 H         -2.2277491507        0.0494673812       -3.2686726300
 H         -0.0712161405        1.1405244208       -3.7593196302
 H          1.4301725898        1.8108004406       -1.9199370704
 H          0.6847037199        0.9582576710        1.6533200997
 C          0.9570026702        2.9801212109        1.0578986896
 C          0.3882232503        3.9917245609        0.1136311995
 C         -0.3742703297        3.6107368511        1.3449956496
 H         -0.4453005495        4.3228633312        2.1534048996
 H         -1.2558890698        2.9968684613        1.2219901497
 H          0.8656111705        4.9587669908        0.0735436194
 H          0.0181712502        3.6504938109       -0.8399892804
 H          1.7921916403        3.3123857108        1.6666178795
