  62
        -98.93311796
 C         -2.3893211015       -1.2828120617        0.0178984425
 C         -2.4298955660       -0.0001999363       -0.5779058060
 C         -3.7684934135        0.5891833266       -0.7470428464
 C         -4.8485432046       -0.1089845475       -0.3509186790
 C         -6.2672638792        0.3845653866       -0.3832599333
 C         -6.5133564816        1.3574257436        0.7877255302
 C         -6.8097815088        2.7949565890        0.3604319682
 H         -7.8338481821        2.8497730217       -0.0145335786
 H         -6.7515839792        3.4203695890        1.2537331399
 C         -5.8857521507        3.3746661938       -0.7148584835
 H         -6.0423176383        4.4554192574       -0.7201073201
 H         -6.1916180412        3.0115362209       -1.6970936690
 C         -4.3878598533        3.0958190218       -0.5341373592
 H         -3.8374344661        3.9941483131       -0.8213051180
 H         -4.1542120109        2.9030070983        0.5131784106
 C         -3.8410773467        1.9432039509       -1.3973464986
 H         -4.4198302389        1.8735174391       -2.3227545501
 H         -2.8075282083        2.1739358228       -1.6734540499
 H         -5.6337834994        1.3430688283        1.4347134509
 H         -7.3508554543        0.9995037934        1.3883103906
 H         -6.4647571464        0.8725243570       -1.3350093644
 H         -6.9157262906       -0.4872831871       -0.2957369721
 O         -4.7665618791       -1.3432179349        0.2113219167
 C         -3.5429014863       -1.9593368020        0.4121976129
 O         -3.6128506685       -3.0849343814        0.9454390097
 H          1.5945295267       -1.3268648614       -0.2080316387
 C          1.1881650620       -0.8833206500        0.6845094276
 C         -0.1319789933       -1.1039643163        1.0441456228
 C         -0.6128298710       -0.5177735084        2.2123613612
 C          0.2002840895        0.2898642169        2.9826707045
 C          1.5101145618        0.5291290427        2.6059123052
 C          2.0069418662       -0.0665126589        1.4529412698
 N          3.3531348437        0.1180538867        1.0876287957
 S          3.7900653851        0.2599565150       -0.5366682800
 O          3.0857273281        1.3591913561       -1.1586191149
 O          3.6690483846       -1.0260949619       -1.1741333998
 C          5.5156197206        0.6682150996       -0.3402691900
 C          6.4065194208       -0.3518588994       -0.0647686182
 C          7.7443184401       -0.0414886047        0.1196657661
 C          8.1670742377        1.2763953969        0.0269383642
 C          7.2620210811        2.2891337788       -0.2524105687
 C          5.9221597200        1.9853697614       -0.4369362576
 H          5.1844419288        2.7382244022       -0.6643142917
 H          7.5940206960        3.3121255509       -0.3273824345
 H          9.2089888900        1.5154410682        0.1703411992
 H          8.4514868207       -0.8264033989        0.3341980746
 H          6.0331406455       -1.3610519373       -0.0105123390
 H          3.7942268284        0.8525768701        1.6257502833
 H          2.1426256091        1.1688893082        3.2026772670
 H         -0.1898240702        0.7446502034        3.8810267028
 H         -1.6398815938       -0.6981374124        2.5014207785
 C         -1.0565110694       -1.9766823732        0.2305134513
 H         -1.2748612211       -2.8824618537        0.8160640074
 C         -0.4699769586       -2.3921281589       -1.1027215740
 C          0.4153091691       -3.5971433212       -1.1959506443
 C         -0.9709610907       -3.6398297221       -1.7632019844
 H         -1.0921611857       -3.6420501355       -2.8360656762
 H         -1.7230793296       -4.2090955262       -1.2361515429
 H          1.2540591311       -3.5655031233       -1.8754072486
 H          0.6066850948       -4.1461288597       -0.2862330229
 H         -0.2443131908       -1.5441855646       -1.7410688906
 O         -1.4008825924        0.6240396887       -0.9506719243
