  62
        -98.94518667
 C         -0.8606134105       -1.1334541330        0.2534737186
 C         -1.6334352379       -0.5027047150        1.2608781960
 C         -2.4910975268        0.6022072499        0.8179906681
 C         -2.4559023749        0.9975467430       -0.4668849128
 C         -3.3021964870        2.0783413874       -1.0836373153
 C         -4.7024945789        1.6052330593       -1.4992958144
 C         -5.6772184321        1.3567783315       -0.3473350819
 H         -5.7007690163        2.2312299200        0.3037795525
 H         -6.6713706050        1.2513138352       -0.7862318550
 C         -5.3721650277        0.1027914012        0.4839488070
 H         -4.6998422218       -0.5512919404       -0.0764358118
 H         -6.2950514387       -0.4571406654        0.6514823067
 C         -4.7591947750        0.3843290683        1.8560733371
 H         -5.4782655909        0.9251107109        2.4754533614
 H         -4.5505766002       -0.5725523925        2.3420524160
 C         -3.4515522451        1.1860236088        1.8094824146
 H         -3.6584839872        2.2294558281        1.5727906335
 H         -2.9832083649        1.1368416102        2.7958883879
 H         -4.6020935681        0.6941550011       -2.0934908689
 H         -5.1285538633        2.3771956244       -2.1441624069
 H         -3.3942733923        2.9174401131       -0.3936719441
 H         -2.7761447779        2.4142253024       -1.9786135106
 O         -1.6111315038        0.4458582261       -1.3751059051
 C         -0.7961039264       -0.6309797842       -1.0473545061
 O         -0.0827367331       -1.0225995426       -1.9878126130
 H          1.7477543053       -0.5087773878        1.2474214240
 C          2.1435564027       -1.2147525098        0.5309527348
 C          1.3475650730       -2.2683127197        0.0980176720
 C          1.8780358287       -3.1749573645       -0.8101909041
 C          3.1716398929       -3.0208135941       -1.2759509170
 C          3.9570069852       -1.9646569912       -0.8535321742
 C          3.4351287937       -1.0529965878        0.0578519793
 N          4.2105235956        0.0226194784        0.5128842908
 S          3.5086366712        1.4347754426        1.0366093069
 O          4.5775678854        2.4094162990        0.9601577731
 O          2.9308560450        1.2529580053        2.3455672870
 C          2.2410226993        1.8820113931       -0.1366520107
 C          1.1016323019        2.4977108067        0.3396634840
 C          0.1582736004        2.9588366423       -0.5632109676
 C          0.3625838144        2.7827621244       -1.9224019659
 C          1.5018208251        2.1449709256       -2.3851427653
 C          2.4571880437        1.6983337683       -1.4871823156
 H          3.3545992789        1.2086943414       -1.8283476898
 H          1.6483748069        1.9928642404       -3.4421745187
 H         -0.3726449575        3.1396533201       -2.6261443122
 H         -0.7318393775        3.4480803020       -0.2013393007
 H          0.9728865822        2.5998290916        1.4060549088
 H          5.0814925050        0.1747319547        0.0272501007
 H          4.9636207584       -1.8417216725       -1.2227145956
 H          3.5711090978       -3.7283343799       -1.9864979633
 H          1.2712826546       -3.9880829191       -1.1724416676
 C         -0.0517494832       -2.3549243417        0.6486382155
 H          0.0171618743       -2.2948082598        1.7482718823
 C         -0.7436865321       -3.6725685112        0.3273551330
 C         -2.2388501456       -3.7761088388        0.3202796087
 C         -1.4735990391       -3.9004054650       -0.9612046668
 H         -1.4061379238       -4.8742820334       -1.4235915944
 H         -1.5101736407       -3.0842369357       -1.6658130344
 H         -2.6938329708       -4.6613501548        0.7387848448
 H         -2.8042144347       -2.8722408197        0.4954864965
 H         -0.2078243359       -4.5213394367        0.7412657105
 O         -1.6177584937       -0.8550362193        2.4710544454
