  62
        -98.93506438
 C         -2.0424618051       -0.6964045229       -0.4029000572
 C         -3.1818386359       -1.2260406807        0.2517691002
 C         -4.4531721325       -0.4914018872        0.1047599686
 C         -4.4593958936        0.6474418488       -0.6118801468
 C         -5.6105244871        1.5841712993       -0.8647418947
 C         -5.9385693137        2.4612177770        0.3545528205
 C         -5.9474926961        1.7261315050        1.6923973814
 H         -6.0794861966        2.4727661815        2.4800023365
 H         -4.9738493381        1.2586626890        1.8507030226
 C         -7.0469972816        0.6789427653        1.8528894554
 H         -8.0201268506        1.1608010101        1.7343990807
 H         -6.9869251055        0.3001517704        2.8764352357
 C         -6.9776053884       -0.5161205645        0.8999631553
 H         -7.3382805702       -0.2496843384       -0.0899355828
 H         -7.6618966967       -1.2782871286        1.2842310851
 C         -5.6050662779       -1.1745240333        0.8018322288
 H         -5.7196328560       -2.1442255072        0.3019521065
 H         -5.2485048536       -1.4124014186        1.8104675681
 H         -6.9084724927        2.9333267961        0.1889969256
 H         -5.1849502428        3.2503992132        0.4142946603
 H         -6.4838033607        1.0244338987       -1.1865533125
 H         -5.3099590882        2.2346523928       -1.6892057917
 O         -3.3320449262        1.1398532311       -1.1973489451
 C         -2.1046762358        0.5011742109       -1.1163946258
 O         -1.1897538563        1.0971991197       -1.7140998070
 O         -3.1441665141       -2.2779935136        0.9451758742
 C         -0.7338510258       -1.4508946071       -0.2432670747
 C          0.3567919019       -0.5035257444        0.1845262961
 C          0.3659508561       -0.0305389030        1.4935629428
 C          1.3296203976        0.8657433478        1.9156262419
 C          2.3052276261        1.3098267114        1.0407408945
 C          2.3053957998        0.8425573463       -0.2667957564
 C          1.3444920937       -0.0691266137       -0.6849514703
 H          1.3422358923       -0.4066256162       -1.7094597624
 N          3.2905676318        1.2910216645       -1.1594443087
 S          4.8704238496        1.3928319069       -0.6311792755
 O          5.0593032615        2.6025697298        0.1306318369
 O          5.6784894694        1.2666608575       -1.8238842753
 C          5.0943137840       -0.0265661391        0.4273893434
 C          5.4058100710        0.1470657979        1.7601946897
 C          5.5407912085       -0.9705395348        2.5685788326
 C          5.3586561581       -2.2358047364        2.0331561859
 C          5.0495123244       -2.3943215770        0.6906574337
 C          4.9151153255       -1.2808408608       -0.1220930951
 H          4.6823637517       -1.3695620901       -1.1710564001
 H          4.9099559016       -3.3799587613        0.2764772761
 H          5.4588031845       -3.1046521923        2.6643675317
 H          5.7834843908       -0.8503245653        3.6120985271
 H          5.5364458917        1.1487646527        2.1360526382
 H          3.2186175678        0.9066146117       -2.0889533100
 H          3.0514145244        2.0258791904        1.3447549939
 H          1.3199820578        1.2275661277        2.9325711983
 H         -0.4029270096       -0.3675249836        2.1752430173
 H         -0.9259018777       -2.1469253611        0.5894632283
 C         -0.3472622668       -2.3087769568       -1.4386950520
 C         -1.3978058099       -3.0088304803       -2.2464267978
 C         -0.5982347970       -1.8995262716       -2.8580549978
 H          0.1431321049       -2.1554267881       -3.6016258041
 H         -1.0797259498       -0.9505226856       -3.0341622478
 H         -1.2106478599       -4.0210125815       -2.5718240507
 H         -2.4301706582       -2.8139624677       -1.9947451050
 H          0.5658005630       -2.8659205883       -1.2507613329
