  62
        -98.93102103
 C          2.4627229618        1.1955729243       -0.3419342937
 C          2.1008641240       -0.1092420698        0.0722620404
 C          3.1708860186       -0.9181917173        0.6922765141
 C          4.3893599431       -0.3806312279        0.8667286909
 C          5.6179481250       -1.0475044682        1.4204124076
 C          6.4774384149       -1.6297188173        0.2854500332
 C          6.1000977600       -3.0461090621       -0.1468549633
 H          6.3925646245       -3.7494390949        0.6355913744
 H          6.6890282673       -3.2819602065       -1.0361923456
 C          4.6185731718       -3.2610011923       -0.4673415289
 H          4.5381879446       -4.1503265646       -1.0954217051
 H          4.2421015952       -2.4186324399       -1.0505036159
 C          3.7520551755       -3.4590484624        0.7855386127
 H          4.4015600155       -3.6338416985        1.6431395398
 H          3.1469968548       -4.3604429649        0.6677970384
 C          2.7792626959       -2.3121558130        1.1011442730
 H          2.5616974655       -2.3119851974        2.1747131867
 H          1.8259377850       -2.4923441747        0.5941273950
 H          7.5208675477       -1.6410762036        0.6067379778
 H          6.4065368412       -0.9518973040       -0.5691746450
 H          6.1920521458       -0.2691032459        1.9274419229
 H          5.3493525252       -1.8117332437        2.1436398724
 O          4.6838480510        0.8948500473        0.4930220333
 C          3.7424443419        1.7077320474       -0.1073122343
 O          4.1564972866        2.8522549404       -0.3796874906
 H         -0.9592944208        0.9768750258       -1.4598337792
 C         -0.9465378261        1.5451706081       -0.5429550788
 C          0.2103372742        2.2049445046       -0.1638686775
 C          0.2201106739        2.8976819402        1.0430461622
 C         -0.9042588912        2.9309674823        1.8459847774
 C         -2.0592745350        2.2707072959        1.4648621167
 C         -2.0738224860        1.5656731909        0.2693669395
 N         -3.2415017954        0.8922795074       -0.1361721448
 S         -4.1459605153        0.0935242042        1.0448551784
 O         -4.9611090547        1.0693142032        1.7268314161
 O         -3.2928811218       -0.7120384393        1.8892771636
 C         -5.1780874037       -0.9426227036        0.0265761883
 C         -6.3731073970       -0.4377812146       -0.4494185216
 C         -7.1605595751       -1.2366205489       -1.2632722414
 C         -6.7417969570       -2.5186980489       -1.5864321904
 C         -5.5399830931       -3.0117946041       -1.1005382497
 C         -4.7470657708       -2.2178342596       -0.2868859705
 H         -3.8094475342       -2.5630408453        0.1197370256
 H         -5.2176675466       -4.0095891261       -1.3515821163
 H         -7.3564024008       -3.1396478576       -2.2189152526
 H         -8.0964798288       -0.8581584306       -1.6413370581
 H         -6.6605357241        0.5605885697       -0.1640657243
 H         -3.0607577237        0.2783213625       -0.9191538096
 H         -2.9389489888        2.2763903528        2.0882356560
 H         -0.8825798282        3.4712160254        2.7808823460
 H          1.1275564195        3.4005344573        1.3500877904
 C          1.4732380098        2.1536395242       -0.9865274430
 H          1.9572147966        3.1411403641       -0.9187747371
 C          1.2157574343        1.9022866269       -2.4648020410
 C          2.3367262729        1.4829748114       -3.3675543879
 C          1.2118495075        0.5367367149       -3.0804414005
 H          0.5007290915        0.3375483635       -3.8692340190
 H          1.3984807353       -0.3088805968       -2.4382595906
 H          3.2963422450        1.2924858798       -2.9086601448
 H          2.4026112056        1.9265326759       -4.3495023355
 H          0.5106828225        2.6203311704       -2.8729000556
 O          0.9525355805       -0.6036911228       -0.0732012592
