  62
        -98.94620367
 C          1.2091601470        1.4854753504        0.6259053503
 C          2.2304351513        1.3666321740       -0.3492355181
 C          3.2429402570        0.3332569830       -0.0907290675
 C          3.1730963885       -0.4173562969        1.0224021584
 C          4.1573033317       -1.4765359310        1.4416968609
 C          3.9314928029       -2.8534209194        0.8017854091
 C          4.2637677673       -2.9461511119       -0.6877385702
 H          5.2773648908       -2.5807175283       -0.8552279662
 H          4.2540616409       -4.0054579968       -0.9521471161
 C          3.2858602565       -2.1962263340       -1.6034538841
 H          3.0082512088       -2.8360002459       -2.4437964574
 H          2.3688582555       -1.9690986094       -1.0554449008
 C          3.8416155765       -0.8975431434       -2.1869585325
 H          4.6851751991       -1.1198376444       -2.8442937889
 H          3.0588601320       -0.4285298577       -2.7883349616
 C          4.2996995245        0.1171233273       -1.1315181957
 H          5.2290520807       -0.2136835150       -0.6682661875
 H          4.4769992053        1.0739532393       -1.6283860004
 H          2.8929201897       -3.1491287673        0.9609076311
 H          4.5638693760       -3.5651773469        1.3378174821
 H          5.1696206270       -1.1360188559        1.2206984878
 H          4.0573260483       -1.5808299999        2.5245816599
 O          2.1819773791       -0.2644671073        1.9420588962
 C          1.1778598041        0.6722981677        1.7612907471
 O          0.3295744891        0.6893497350        2.6771472287
 H         -2.1550840704        1.0602557642        0.8617494775
 C         -1.9901492827        1.2722503542       -0.1841209762
 C         -0.8888757792        2.0263398740       -0.5694440597
 C         -0.7045293993        2.2987078103       -1.9205156166
 C         -1.6045106355        1.8234110824       -2.8571417136
 C         -2.6968170585        1.0675265554       -2.4710960356
 C         -2.8909193316        0.7894956494       -1.1227368796
 N         -4.0035662366        0.0441436355       -0.7045074575
 S         -3.8892074677       -1.0353833420        0.5640747923
 O         -5.0405073614       -1.8962346555        0.3954903925
 O         -3.8100321951       -0.3276133609        1.8157639419
 C         -2.4012654259       -1.9694046374        0.2606266238
 C         -2.4037464586       -2.8546817516       -0.8007889968
 C         -1.2594122512       -3.5862597630       -1.0692517078
 C         -0.1345523746       -3.4238466640       -0.2740008890
 C         -0.1505572767       -2.5343106581        0.7879917095
 C         -1.2914989843       -1.7954306034        1.0598511405
 H         -1.3191375688       -1.0912957131        1.8771049154
 H          0.7169176688       -2.3966787310        1.4150574729
 H          0.7567182105       -3.9956247127       -0.4814930670
 H         -1.2450915789       -4.2811408232       -1.8932705830
 H         -3.3031650305       -2.9692430333       -1.3837012623
 H         -4.5728816312       -0.3213659876       -1.4536070565
 H         -3.3986642263        0.6993557300       -3.2036549689
 H         -1.4506997760        2.0409934265       -3.9031550370
 H          0.1589434966        2.8612850039       -2.2347105259
 C          0.0782455400        2.4945119887        0.4920470916
 H         -0.4522939340        2.4753863717        1.4539625945
 C          0.5831871800        3.9030626335        0.2515232333
 C         -0.3479881676        5.0549517388        0.4749645992
 C          0.7887049331        4.8148002020        1.4217350900
 H          1.6279701334        5.4939639272        1.4048331771
 H          0.5617618894        4.4273659857        2.4047724017
 H         -0.2918101689        5.9015395634       -0.1918449720
 H         -1.3473928097        4.8286687942        0.8160762665
 H          1.2941078107        3.9771738074       -0.5604845841
 O          2.3196887348        2.0830836552       -1.3787719059
