  62
        -98.94196136
 C          1.2167518386        0.9148337308        0.3910532676
 C          2.0232823133        0.6939275756       -0.7485644119
 C          2.9761831392       -0.4277346622       -0.6653453502
 C          2.9901046355       -1.1963033324        0.4373450879
 C          3.9065985150       -2.3501010060        0.7372596114
 C          5.1356557733       -1.8765858117        1.5318872395
 C          6.3045050495       -1.3863478317        0.6781109662
 H          7.0468964374       -0.9616632014        1.3576314855
 H          6.7670248793       -2.2410135619        0.1800534804
 C          5.9489781257       -0.3378880130       -0.3793179196
 H          5.2650811559        0.3980220927        0.0471850261
 H          6.8659698903        0.1896955020       -0.6485422077
 C          5.3354837706       -0.9452887732       -1.6497845382
 H          5.8702718406       -0.5698209565       -2.5246318328
 H          5.4850808093       -2.0248468949       -1.6364293631
 C          3.8476668439       -0.6345514843       -1.8740228494
 H          3.4047420500       -1.4255595667       -2.4891698056
 H          3.7506186732        0.2938312683       -2.4459471813
 H          4.8110330478       -1.0794079174        2.2055661470
 H          5.4915788581       -2.7026275524        2.1509132312
 H          4.1988222695       -2.8570595683       -0.1776744717
 H          3.3358604899       -3.0466276219        1.3555311293
 O          2.1619731942       -0.9766660215        1.4953576317
 C          1.2534966908        0.0646934398        1.4950764502
 O          0.5413050776        0.1300224295        2.5189155688
 O          1.9591121315        1.4008533613       -1.7890335509
 C          0.1996029344        2.0401838914        0.3991657400
 C         -0.8494288823        1.8111349908       -0.6637502204
 C         -1.4369569648        2.8384681480       -1.3917468388
 C         -2.4187908033        2.5583967209       -2.3266870760
 C         -2.8522883698        1.2622029588       -2.5399051074
 C         -2.2731787561        0.2282090077       -1.8131217610
 C         -1.2795538735        0.5115773353       -0.8908579172
 H         -0.8178902854       -0.3030883655       -0.3551394116
 N         -2.6752108955       -1.1039041216       -1.9913610000
 S         -2.7029381132       -2.1465836605       -0.6848336411
 O         -1.3636841845       -2.5306015881       -0.3132605969
 O         -3.5696573691       -3.2239364774       -1.1142004456
 C         -3.4999191447       -1.2220730037        0.6162947157
 C         -2.7828109833       -0.7324416202        1.6881279022
 C         -3.4429027181        0.0274312903        2.6421686841
 C         -4.7985183568        0.2821407640        2.5115763552
 C         -5.5078696882       -0.2255059440        1.4330463151
 C         -4.8539593739       -0.9812235837        0.4749389939
 H         -5.3711113459       -1.4036529361       -0.3712576802
 H         -6.5639324430       -0.0320459619        1.3363128523
 H         -5.3039202726        0.8766159628        3.2561873638
 H         -2.8810981636        0.4162028750        3.4767341846
 H         -1.7268159669       -0.9368748662        1.7754429361
 H         -3.4713011430       -1.2347577041       -2.5975741894
 H         -3.6210386865        1.0482794114       -3.2662064288
 H         -2.8601508989        3.3641594978       -2.8931301565
 H         -1.1208901925        3.8563602149       -1.2326699363
 H         -0.3049976399        1.9825349813        1.3759883067
 C          0.8873522584        3.3852760685        0.2856363193
 C          0.3081169152        4.5917617937        0.9596403870
 C          1.5546304175        3.9589218642        1.4985365255
 H          2.4945853800        4.4754155986        1.3748516737
 H          1.4868587805        3.3913141350        2.4156606939
 H          0.3947942877        5.5484699940        0.4669273874
 H         -0.6055456477        4.4627351056        1.5199337023
 H          1.3841151492        3.5175929268       -0.6683016832
