  62
        -98.94124458
 C          2.2306049770        0.9289660488       -0.0895862230
 C          2.9376964497        0.4163784502        1.0300254350
 C          3.7740473776       -0.7637379279        0.7910730751
 C          3.8061577960       -1.3180260843       -0.4338551229
 C          4.5896088447       -2.5379371417       -0.8360988231
 C          6.0539633233       -2.2495590900       -1.1948304573
 C          6.9614778484       -1.9184713058       -0.0093679003
 H          7.9899975759       -1.9563964519       -0.3736471506
 H          6.8572268209       -2.6913223991        0.7527284185
 C          6.7097312305       -0.5390536082        0.6154145653
 H          6.1348392952        0.0763476281       -0.0804605237
 H          7.6640065228       -0.0328492680        0.7770635445
 C          5.9826932848       -0.5748377081        1.9597243892
 H          5.8248602257        0.4543287047        2.2918225381
 H          6.6080545432       -1.0762307352        2.7015708302
 C          4.6171610473       -1.2735114108        1.9206510750
 H          4.0909571478       -1.0535143847        2.8527196251
 H          4.7479127019       -2.3525271459        1.8396504696
 H          6.0814686149       -1.4291135145       -1.9156637296
 H          6.4485730984       -3.1399566524       -1.6897031469
 H          4.0929576434       -2.9495105281       -1.7176085124
 H          4.5476173487       -3.2790129057       -0.0371937323
 O          3.0870591371       -0.8225498521       -1.4739158011
 C          2.2955190526        0.3132074381       -1.3395676950
 O          1.7207722972        0.6403632160       -2.3958102920
 O          2.8756295207        0.9313579568        2.1779482793
 C          1.3939898899        2.1747006721        0.1504100523
 C         -0.0371039432        1.8083681274        0.4497287849
 C         -0.6577173070        2.2317963898        1.6186101215
 C         -1.9651649361        1.8685819333        1.8925951225
 C         -2.6794462619        1.0810798361        1.0076003561
 C         -2.0656794750        0.6467389042       -0.1602124874
 C         -0.7554125859        1.0111634338       -0.4316232647
 H         -0.2809158944        0.6685190463       -1.3398625034
 N         -2.7838656796       -0.1510970563       -1.0713929453
 S         -3.4761487891       -1.5609714605       -0.4722106781
 O         -2.7441251715       -2.0656257313        0.6674327068
 O         -3.5880954521       -2.4474124261       -1.6100078321
 C         -5.1077099513       -1.0485308381        0.0245431121
 C         -5.5298738563       -1.2518220974        1.3237183840
 C         -6.8064732940       -0.8483632089        1.6838552362
 C         -7.6331582009       -0.2526462731        0.7436257302
 C         -7.1946632199       -0.0579588072       -0.5578718374
 C         -5.9204584622       -0.4602266934       -0.9248401253
 H         -5.5420026391       -0.3319278611       -1.9252102135
 H         -7.8403678130        0.4053565111       -1.2863529639
 H         -8.6253617166        0.0614668271        1.0267844049
 H         -7.1491481086       -0.9992948448        2.6948898388
 H         -4.8494592715       -1.7136608487        2.0214229285
 H         -2.2617702713       -0.3515712824       -1.9132783125
 H         -3.6974303510        0.7945511870        1.2153975414
 H         -2.4336600747        2.2022123498        2.8057672284
 H         -0.1020656152        2.8341102721        2.3222653978
 H          1.8175496060        2.6160169371        1.0664197431
 C          1.5326299181        3.2107331245       -0.9575275431
 C          0.4172650062        3.6127332094       -1.8711059474
 C          0.8843570348        4.5553224652       -0.8056494049
 H          1.4396762644        5.4347308048       -1.0941117027
 H          0.2396841768        4.6975442811        0.0486384950
 H          0.6683134915        3.8210161373       -2.9000736640
 H         -0.5443571809        3.1405802835       -1.7473235989
 H          2.5250648435        3.1976891652       -1.3971838373
