  62
        -98.93897772
 C         -1.8277199463       -0.0989214133       -0.0616001765
 C         -2.8228203048       -0.9336454548        0.4953568451
 C         -4.1692766478       -0.3527439097        0.6370199346
 C         -4.3866779523        0.9131607014        0.2335088450
 C         -5.6291416547        1.7776045633        0.2915475451
 C         -6.9969491100        1.1636160465        0.5783963619
 C         -7.5307765932        0.2482189143       -0.5229886133
 H         -8.4561999523       -0.2102477079       -0.1676161515
 H         -7.7764283411        0.8605916125       -1.3943402082
 C         -6.5779919778       -0.8505914892       -0.9871279111
 H         -5.6883512450       -0.4007704750       -1.4327690718
 H         -7.0805726012       -1.4173774331       -1.7756703994
 C         -6.1459069193       -1.8403668385        0.0928244446
 H         -7.0278114632       -2.2713535570        0.5706594067
 H         -5.6039062688       -2.6507369973       -0.4020357783
 C         -5.2261073694       -1.2681885811        1.1851600905
 H         -5.7990574860       -0.7715194469        1.9644479483
 H         -4.6951599256       -2.1038840814        1.6503459823
 H         -7.6964117745        1.9978265103        0.6808619099
 H         -6.9847027569        0.6454251650        1.5326727991
 H         -5.4246256209        2.5381589682        1.0533230173
 H         -5.6679354450        2.3063169834       -0.6662129539
 O         -3.3898438926        1.6824310437       -0.2965752589
 C         -2.0989795078        1.2076301116       -0.4621039436
 O         -1.3097102848        2.0299774800       -0.9641107338
 H          1.9603603775        0.4889343767       -1.1052963035
 C          1.7220534005        0.7114427460       -0.0790807177
 C          0.5649737966        0.2219861565        0.5051374161
 C          0.3026313824        0.5445552170        1.8353051919
 C          1.1583975650        1.3594248434        2.5484924820
 C          2.3056768210        1.8591862314        1.9564510537
 C          2.5850548887        1.5329195194        0.6361857518
 N          3.7408204660        2.0256220156        0.0092280953
 S          4.6670100029        0.9962065355       -0.9259219814
 O          5.9748476264        1.6143033106       -0.9591487886
 O          4.0427678049        0.7718150716       -2.2044126123
 C          4.7276459738       -0.5202779308        0.0114539533
 C          4.1008098896       -1.6518518108       -0.4663543635
 C          4.1185561789       -2.8036405435        0.3044712201
 C          4.7567486082       -2.8020543454        1.5346865452
 C          5.3875094124       -1.6575396420        1.9988724681
 C          5.3730415950       -0.5038822766        1.2327333043
 H          5.8628246498        0.4000182298        1.5566402503
 H          5.8868478633       -1.6614255879        2.9543237766
 H          4.7643960719       -3.6989681759        2.1337493788
 H          3.6322539325       -3.6958915384       -0.0567952192
 H          3.6141350000       -1.6103977087       -1.4267771705
 H          4.3199791133        2.6069778764        0.5970557434
 H          2.9716118411        2.5053406920        2.5078160910
 H          0.9337808664        1.6083447192        3.5746534204
 H         -0.5948455236        0.1564084227        2.2973594181
 C         -0.4218926841       -0.6440273173       -0.2364656946
 H         -0.4342580469       -1.6373955397        0.2364366781
 C         -0.1073432922       -0.8098221257       -1.7079374723
 C          0.8048556908       -1.9048566285       -2.1696559848
 C         -0.6666994693       -1.9926136155       -2.4384931412
 H         -1.0193464312       -1.8547986116       -3.4496851295
 H         -1.2500263763       -2.6977350006       -1.8644502736
 H          1.4688225002       -1.7050567393       -2.9979777095
 H          1.2151852279       -2.5593203525       -1.4157693702
 H         -0.0827014593        0.1353682752       -2.2396326041
 O         -2.5947312030       -2.1142520045        0.8735833756
