  62
        -98.93280906
 C         -1.9135388086       -0.5140581061       -0.2402225429
 C         -3.0455435481       -1.1249068054        0.3549913705
 C         -4.3157496032       -0.3775654979        0.3130938275
 C         -4.3254536038        0.8570555583       -0.2193636347
 C         -5.4820905345        1.8110281130       -0.3799079165
 C         -6.4378844498        1.9476316447        0.8151201503
 C         -7.8130112069        1.3237273903        0.5697926332
 H         -8.1109989827        1.5336277980       -0.4596574796
 H         -8.5391647141        1.8110541200        1.2242647962
 C         -7.8996002768       -0.1802763760        0.8236191498
 H         -8.8805915979       -0.5171777609        0.4801645175
 H         -7.8495721802       -0.3688925568        1.8982179004
 C         -6.8232892186       -1.0221589843        0.1355082576
 H         -6.6441141804       -0.6590192621       -0.8760219614
 H         -7.2042330816       -2.0416619211        0.0449626584
 C         -5.5002198396       -1.0845165360        0.9134819364
 H         -5.1802051454       -2.1264743488        1.0122479157
 H         -5.6495481078       -0.7197627035        1.9337934739
 H         -6.5812021047        3.0126718223        1.0049915573
 H         -5.9808946959        1.5209360142        1.7066301198
 H         -6.0440575752        1.5253653895       -1.2729220465
 H         -5.0219794222        2.7774164303       -0.5990682142
 O         -3.2026492477        1.4270449668       -0.7395286821
 C         -1.9790221184        0.7725513281       -0.7760953206
 O         -1.0717999042        1.4438448752       -1.3001862590
 O         -3.0008096977       -2.2598399241        0.9011039244
 C         -0.6085536071       -1.2913851621       -0.2095554140
 C          0.4971378565       -0.4302739507        0.3432107667
 C          0.5756238883       -0.2232707202        1.7170039144
 C          1.5613096177        0.5821595834        2.2563793268
 C          2.4868025049        1.2017755849        1.4357117084
 C          2.4136142864        1.0051112923        0.0630726508
 C          1.4347146489        0.1803025347       -0.4750357751
 H          1.3767088800        0.0493596889       -1.5442187852
 N          3.3476075601        1.6385693457       -0.7747414722
 S          4.9660605309        1.5112474557       -0.3774455163
 O          5.2848111060        2.4395212318        0.6786441188
 O          5.6820386535        1.6966578595       -1.6199370357
 C          5.1531347754       -0.1628044464        0.2100409591
 C          5.4111063407       -0.4050806940        1.5435155671
 C          5.4932759070       -1.7171724266        1.9822383548
 C          5.3129332256       -2.7580880199        1.0852202964
 C          5.0581994206       -2.4982844284       -0.2529220022
 C          4.9747062802       -1.1889612690       -0.6967566597
 H          4.7853755243       -0.9495911239       -1.7308990570
 H          4.9211362552       -3.3101294813       -0.9490387764
 H          5.3722321178       -3.7785845670        1.4292745551
 H          5.6934150183       -1.9224721752        3.0214642644
 H          5.5452789597        0.4330031509        2.2073542896
 H          3.1893463969        1.4773002814       -1.7580310085
 H          3.2533416834        1.8465449974        1.8341760323
 H          1.6077769162        0.7339295266        3.3240573432
 H         -0.1548003565       -0.6965621693        2.3586116905
 H         -0.7978946849       -2.1036061011        0.5104957443
 C         -0.2375365466       -1.9613076935       -1.5244663150
 C         -1.2968712785       -2.5659990418       -2.3952967878
 C         -0.5351310824       -1.3651650582       -2.8663443514
 H          0.1910434876       -1.4989783885       -3.6554426670
 H         -1.0397459261       -0.4123836948       -2.8984911189
 H         -1.1007318162       -3.5189935470       -2.8628617448
 H         -2.3249565005       -2.4300665044       -2.0925702265
 H          0.6912294223       -2.5174164563       -1.4386278806
