  62
        -98.94604655
 C         -1.6922561027       -1.2249997305       -0.8084759837
 C         -2.8506012477       -0.6840594435       -0.1906784080
 C         -3.1990296503        0.6936403595       -0.5454895475
 C         -2.4533783732        1.3552854054       -1.4481277237
 C         -2.6541325258        2.7770612532       -1.8950543772
 C         -1.9945244833        3.7974725371       -0.9568448669
 C         -2.7164389828        4.0109869765        0.3743298555
 H         -2.2929761968        4.9099858457        0.8268944362
 H         -3.7741397779        4.2041750025        0.1893946183
 C         -2.5666760496        2.8477579791        1.3653691298
 H         -1.7178632135        2.2246180530        1.0696806369
 H         -2.3317639271        3.2444785229        2.3564921947
 C         -3.8128622125        1.9732244833        1.5141159919
 H         -4.6213386578        2.5625831646        1.9535043173
 H         -3.5750387290        1.1584712774        2.2032337439
 C         -4.3166419756        1.3524852077        0.2044935666
 H         -4.7956700371        2.1119160858       -0.4130099683
 H         -5.0527297326        0.5832477427        0.4513214446
 H         -1.9540263393        4.7536184534       -1.4843962441
 H         -0.9677414215        3.4771348833       -0.7597132215
 H         -2.1932965764        2.8650505224       -2.8812538781
 H         -3.7189084431        2.9933964555       -1.9856486744
 O         -1.4008735947        0.7796877458       -2.0779045099
 C         -0.9485791613       -0.4849525260       -1.7261869713
 O          0.0965663102       -0.8115316194       -2.3249679672
 O         -3.5564785135       -1.3288780521        0.6316633947
 C         -1.2401643357       -2.5805217118       -0.2887580554
 C         -0.4190569177       -2.3416811197        0.9587724076
 C         -0.7345216781       -2.9564375244        2.1632218545
 C         -0.0320717703       -2.6426582612        3.3139522582
 C          0.9655579365       -1.6859343137        3.2895713426
 C          1.2927693587       -1.0682568054        2.0858141514
 C          0.6314090080       -1.4348427923        0.9250108988
 H          0.8962964238       -0.9624270692       -0.0058239329
 N          2.2806938633       -0.0760060350        2.0354643883
 S          2.1464695669        1.2775284589        1.0454501580
 O          2.6468156016        2.3682461528        1.8596114691
 O          0.8122364749        1.4373598761        0.5229991400
 C          3.3424621875        0.9515321451       -0.2331284760
 C          4.6716144222        1.1563229414        0.0892877135
 C          5.6446810578        0.8933539794       -0.8595424873
 C          5.2755722923        0.4291418983       -2.1136161327
 C          3.9395858462        0.2304706418       -2.4221163160
 C          2.9590082770        0.4927191766       -1.4759894051
 H          1.9149312015        0.3374162836       -1.7025915710
 H          3.6437376389       -0.1311060773       -3.3941295879
 H          6.0313357065        0.2226327457       -2.8550295594
 H          6.6842870892        1.0500659807       -0.6209608854
 H          4.9114010806        1.5316664682        1.0703066077
 H          2.6629294743        0.1771633599        2.9349546203
 H          1.4827997335       -1.4077334329        4.1954429703
 H         -0.2848837335       -3.1250760499        4.2460258967
 H         -1.5523083236       -3.6605434475        2.2015642509
 H         -2.1579778866       -3.1038929677        0.0138536899
 C         -0.4971508202       -3.4489033150       -1.2805353091
 C         -0.4825997700       -4.9332153913       -1.0738182765
 C         -1.2716409711       -4.3408690863       -2.2018062101
 H         -0.9131240849       -4.4696555196       -3.2116704076
 H         -2.3488317298       -4.3286738854       -2.1202431422
 H          0.4208874707       -5.4749390879       -1.3070582742
 H         -1.0264803863       -5.3275659031       -0.2289308861
 H          0.3975788886       -2.9866972488       -1.6750176703
