  62
        -98.94013542
 C          2.4353667705        0.8617884896        0.1057010622
 C          2.7193636203       -0.5228506805        0.1835913107
 C          4.1106625102       -0.8710909111        0.5080444804
 C          5.0029687403        0.1117990486        0.7285930916
 C          6.4602644703       -0.1005860519        1.0179731115
 C          7.2886201004       -0.1030897406       -0.2744387084
 C          6.7251720604       -1.0124025093       -1.3663860895
 H          5.7627300605       -0.6163731988       -1.6986016591
 H          7.4060495105       -0.9579864384       -2.2185944994
 C          6.5505315602       -2.4777847497       -0.9437851111
 H          7.1468693501       -2.6802463208       -0.0534790913
 H          6.9302389102       -3.1197392389       -1.7414169718
 C          5.1012742201       -2.8958853798       -0.6880136318
 H          4.4809612802       -2.6097430288       -1.5412232315
 H          5.0701571300       -3.9860986899       -0.6124014130
 C          4.4579721701       -2.3312415012        0.5849861288
 H          3.5097177300       -2.8546602512        0.7390779381
 H          5.1037209599       -2.5297216822        1.4427567487
 H          8.3069477904       -0.4113858810       -0.0309950587
 H          7.3256902006        0.9168580999       -0.6639260573
 H          6.8052897903        0.7128522473        1.6584014825
 H          6.5866133001       -1.0441562225        1.5450808005
 O          4.6849512305        1.4306988387        0.6675512730
 C          3.4011469306        1.8384046492        0.3466023834
 O          3.2454386507        3.0764312693        0.3168336147
 H         -1.4697007495        0.2597053010       -0.7156279389
 C         -1.2072654696        0.2943484998        0.3284896212
 C          0.0233461504        0.7850045492        0.7345351319
 C          0.3105520803        0.8141296676        2.0970768219
 C         -0.6043364299        0.3514229467        3.0225085113
 C         -1.8362963299       -0.1283609727        2.6133757406
 C         -2.1358319497       -0.1560395811        1.2573319906
 N         -3.3710304398       -0.6464455305        0.8032497599
 S         -4.0897381195        0.1228136611       -0.5179862993
 O         -3.5758250295       -0.4552219376       -1.7339476999
 O         -3.9591418394        1.5562270009       -0.3859262177
 C         -5.7912116696       -0.3641238490       -0.2932133700
 C         -6.6580449996        0.4925578804        0.3589974309
 C         -7.9714346996        0.0958707204        0.5556387503
 C         -8.3929778897       -1.1448308191        0.1015607989
 C         -7.5117868498       -1.9934044185       -0.5521775220
 C         -6.1974103397       -1.6026972884       -0.7529859314
 H         -5.4798877597       -2.2238834579       -1.2633566421
 H         -7.8439542099       -2.9559184580       -0.9063790831
 H         -9.4155732498       -1.4511631891        0.2555447484
 H         -8.6597573596        0.7546408199        1.0601632510
 H         -6.2883171595        1.4511811900        0.6859150720
 H         -4.0319148498       -0.8015332212        1.5522580497
 H         -2.5545658500       -0.4832508234        3.3368352002
 H         -0.3612951300        0.3747477755        4.0743413914
 H          1.2670329503        1.2032724571        2.4201696124
 C          1.0352885706        1.3265782202       -0.2465250974
 H          1.0429239607        2.4230362600       -0.1476164162
 C          0.7187944407        0.9735997418       -1.6854595679
 C         -0.2220994991        1.8221520728       -2.4849468570
 C          1.2460705609        1.8446399730       -2.7842356868
 H          1.5952745509        1.3764661839       -3.6922876273
 H          1.8136718910        2.7172206326       -2.4943481458
 H         -0.6580001691        2.6815674823       -1.9971567461
 H         -0.8881313891        1.3350754037       -3.1820950776
 H          0.7070198606       -0.0973699880       -1.8567833991
 O          1.8582749802       -1.4215058602       -0.0053036404
