  62
        -98.94757486
 C         -2.5329292761       -0.2773576290       -0.0016198417
 C         -2.2161050557       -1.2826015741       -0.9449449764
 C         -1.5947191081       -2.4992457773       -0.4080100594
 C         -1.3874987485       -2.6006939488        0.9174888672
 C         -0.7670286173       -3.7851667790        1.6007397012
 C          0.7483669604       -3.6193523583        1.7691672502
 C          1.4788774917       -3.2170454305        0.4877620703
 H          1.2003939429       -2.1938365854        0.2237457537
 H          2.5472552541       -3.2001641069        0.7177872622
 C          1.2311871581       -4.1392359039       -0.7136513077
 H          2.1848570645       -4.3160370170       -1.2152360941
 H          0.8577676690       -5.1054932633       -0.3710811330
 C          0.2781162764       -3.5656364594       -1.7645318474
 H          0.3848989557       -4.1542760462       -2.6800222497
 H          0.5742186399       -2.5382919624       -1.9962347940
 C         -1.2097677065       -3.5705229163       -1.3885680624
 H         -1.7852204629       -3.3648497750       -2.2960931869
 H         -1.4939464340       -4.5578888044       -1.0175283258
 H          1.1565457778       -4.5604006710        2.1440352072
 H          0.9308113827       -2.8422279932        2.5150176699
 H         -0.9825769161       -4.6813705910        1.0215915493
 H         -1.2221809121       -3.8829783521        2.5882682795
 O         -1.7181622296       -1.6201988602        1.7961877220
 C         -2.2463535039       -0.4167401129        1.3562744138
 O         -2.4398328910        0.4201428304        2.2597237411
 O         -2.4506649710       -1.1684992922       -2.1802370481
 C         -3.0811756436        1.0496386614       -0.4985586358
 C         -2.0538236628        2.1216680716       -0.2260094620
 C         -2.3420590180        3.3579938510        0.3361295556
 C         -1.3221333283        4.2553128148        0.6064903991
 C         -0.0023187426        3.9347022154        0.3461667563
 C          0.2927590011        2.7064193590       -0.2348592320
 C         -0.7331728082        1.8304517725       -0.5412607793
 H         -0.4922669134        0.8815955264       -0.9981471091
 N          1.6156782563        2.3203946806       -0.5227375366
 S          1.9764628644        0.6862622115       -0.2525689114
 O          1.6312482743       -0.0644768239       -1.4338610708
 O          1.3868459500        0.2502477513        0.9922677956
 C          3.7518014003        0.7650878649       -0.1046616539
 C          4.5110696609        0.8223312670       -1.2581301182
 C          5.8893091273        0.9167879869       -1.1484958559
 C          6.4818419485        0.9522261300        0.1051838229
 C          5.7069812360        0.8915405293        1.2537139058
 C          4.3276747133        0.7986934169        1.1510129105
 H          3.6839496109        0.7401148617        2.0142988447
 H          6.1700213634        0.9153039531        2.2270012094
 H          7.5547161778        1.0246848410        0.1878485635
 H          6.4949191237        0.9612539855       -2.0391656010
 H          4.0052243010        0.7811686477       -2.2086135613
 H          2.3001019269        2.9234447415       -0.0857020454
 H          0.7920190026        4.6234776163        0.5908559873
 H         -1.5578698310        5.2108916412        1.0500570311
 H         -3.3610526810        3.6127737518        0.5777349457
 H         -3.1791353045        0.9352989583       -1.5889986034
 C         -4.4440425606        1.3432566566        0.0889671159
 C         -5.4248419211        2.1861765786       -0.6687187391
 C         -5.6516986024        0.7113793599       -0.5337034154
 H         -6.4433068608        0.3655619074        0.1136827904
 H         -5.4911308985        0.0856690300       -1.3996557122
 H         -6.0662950763        2.8543303841       -0.1143256449
 H         -5.1182444325        2.5642878969       -1.6322322607
 H         -4.4215268034        1.4237808884        1.1697310094
