  62
        -98.93538889
 C          2.0094060074        0.6625488332       -0.4484950629
 C          3.1401910578        1.2557872932        0.1673723899
 C          4.4243533800        0.5468541944        0.0374419051
 C          4.4617357262       -0.6340464533       -0.6067532848
 C          5.6190563278       -1.5556399022       -0.9297244071
 C          6.9589457516       -1.4074368077       -0.2132644550
 C          6.9263586244       -1.7294496076        1.2801450786
 H          6.7505415473       -2.8013751165        1.4013434646
 H          7.9099693526       -1.5046659982        1.6984852049
 C          5.8621707965       -0.9934208704        2.0905163108
 H          5.9586943152       -1.3094803107        3.1328271046
 H          4.8688759174       -1.2985731785        1.7543786154
 C          5.9522190514        0.5311784802        2.0571799141
 H          6.9554807723        0.8465686008        2.3500642324
 H          5.2498592879        0.9175086530        2.8005993069
 C          5.6043327000        1.1876554962        0.7093952157
 H          5.3211129837        2.2261140951        0.9041642481
 H          6.4632265943        1.2031978755        0.0424826841
 H          7.6444764857       -2.1147572651       -0.6880995063
 H          7.3676044863       -0.4149127480       -0.3787512042
 H          5.2405964173       -2.5711794321       -0.7756239028
 H          5.7904420179       -1.4517561064       -2.0071149109
 O          3.3401523152       -1.1868009731       -1.1513041145
 C          2.0953347301       -0.5737791800       -1.0880941259
 O          1.1898807935       -1.2316318002       -1.6322065005
 O          3.0826615828        2.3444129225        0.7986567264
 C          0.6833556757        1.3918465344       -0.3183416376
 C         -0.3776267677        0.4493341831        0.1874023091
 C         -0.3661309323        0.0752439750        1.5279203286
 C         -1.3058108466       -0.8083173234        2.0245858013
 C         -2.2769894958       -1.3383766815        1.1938555261
 C         -2.2959841072       -0.9722535554       -0.1453037744
 C         -1.3596735406       -0.0733059108       -0.6391027703
 H         -1.3722491527        0.1865679275       -1.6859806410
 N         -3.2806719986       -1.5083411481       -0.9920465960
 S         -4.8661539347       -1.4861014199       -0.4638514657
 O         -5.0912046852       -2.5713950716        0.4581586883
 O         -5.6696239678       -1.5010849627       -1.6660101277
 C         -5.0349636498        0.0740624215        0.3853081051
 C         -4.9154660515        1.2316548107       -0.3583108993
 C         -4.9859461602        2.4544423844        0.2884075714
 C         -5.1696345338        2.4987066691        1.6622324977
 C         -5.2920826016        1.3280530230        2.3939238520
 C         -5.2228005629        0.1018065997        1.7518634549
 H         -5.3133444496       -0.8316525133        2.2827022910
 H         -5.4372986443        1.3656794782        3.4614970021
 H         -5.2186838814        3.4521563098        2.1641014166
 H         -4.8937800361        3.3669176163       -0.2785562559
 H         -4.7800458345        1.1599774858       -1.4255744430
 H         -3.2009151878       -1.2131725152       -1.9534598371
 H         -3.0084685887       -2.0418161720        1.5573230083
 H         -1.2808878000       -1.0917911613        3.0658276507
 H          0.3990913876        0.4802812247        2.1757986850
 H          0.8683494281        2.1451854959        0.4644804521
 C          0.2574667282        2.1603252676       -1.5603288012
 C          1.2773343431        2.8359205217       -2.4261241218
 C          0.5008035267        1.6690380940       -2.9547398667
 H         -0.2575976413        1.8571932621       -3.7013625724
 H          1.0064527345        0.7243456510       -3.0783291868
 H          1.0577594374        3.8200619507       -2.8115743126
 H          2.3179890671        2.6849018200       -2.1783942776
 H         -0.6683815801        2.7031284276       -1.3943720963
