  62
        -98.93212215
 C         -2.1650472395       -1.1076648609       -0.3745115113
 C         -2.8325705598       -0.5287585216        0.7334622889
 C         -3.2586660002        0.8749550784        0.6089931894
 C         -2.9863688603        1.5441268189       -0.5264437402
 C         -3.2249437706        2.9871126390       -0.9197223396
 C         -4.1460238010        3.8793279584       -0.0923068593
 C         -5.6245836709        3.4964635580       -0.1498592396
 H         -6.1686425311        4.1263808775        0.5570303006
 H         -6.0007152208        3.7178818983       -1.1517392496
 C         -5.9369053305        2.0318374078        0.1458735097
 H         -5.4665785502        1.3972350582       -0.6079026505
 H         -7.0177126604        1.8952570475        0.0540667795
 C         -5.5240946105        1.5426885173        1.5325489595
 H         -5.9423224402        0.5416163271        1.6669025790
 H         -5.9579812307        2.1914301768        2.2958062898
 C         -4.0084190005        1.4458877776        1.7782904196
 H         -3.5909130208        2.4079072576        2.0671327601
 H         -3.8433210503        0.7565343273        2.6116437293
 H         -3.8003472811        3.9222512281        0.9364211407
 H         -4.0496284313        4.8892086286       -0.5002155888
 H         -2.2303912308        3.4469349494       -0.9495755893
 H         -3.5835813005        2.9610999694       -1.9537679897
 O         -2.3395865700        0.9475791796       -1.5683707504
 C         -1.8999308396       -0.3676740703       -1.5251257610
 O         -1.3080921994       -0.7253116097       -2.5616386211
 O         -3.0599486897       -1.1661878121        1.7972485986
 C         -1.6873308291       -2.5403953308       -0.2071835219
 C         -0.2983253991       -2.5327888307        0.3797269982
 C          0.0149430410       -3.2554372211        1.5239586079
 C          1.2795689909       -3.1786525609        2.0835380481
 C          2.2539507407       -2.3755581904        1.5180595586
 C          1.9502492906       -1.6557395800        0.3712693488
 C          0.6889341207       -1.7424003901       -0.1936296413
 H          0.4618898606       -1.1710134698       -1.0827044411
 N          2.9325607004       -0.7945374294       -0.1906385007
 S          3.0021525599        0.6898039202        0.6254865200
 O          3.0909397098        0.4245138296        2.0383291799
 O          1.9111344297        1.5425664601        0.1971212103
 C          4.5517824298        1.3373540110        0.0300578104
 C          4.5574536096        2.2209593114       -1.0314562692
 C          5.7722730295        2.6897238320       -1.5068542088
 C          6.9536658896        2.2655611721       -0.9178515589
 C          6.9314167097        1.3766943216        0.1467058007
 C          5.7203286298        0.9049522010        0.6267085404
 H          5.6523737299        0.2208596307        1.4560474701
 H          7.8520790298        1.0508838817        0.6031137506
 H          7.8972472395        2.6323347625       -1.2898157687
 H          5.7914048794        3.3822830024       -2.3329944085
 H          3.6141814595        2.5304215413       -1.4529912991
 H          2.7050011904       -0.5818332991       -1.1551085806
 H          3.2320653606       -2.2816798703        1.9594900487
 H          1.5042002710       -3.7412106313        2.9768402979
 H         -0.7486177489       -3.8605474515        1.9906421676
 H         -2.3614061990       -2.9775425113        0.5462961978
 C         -1.8056106387       -3.3797860403       -1.4705606623
 C         -0.6256281085       -3.8825360396       -2.2419971024
 C         -1.4473827482       -4.8361961502       -1.4313286529
 H         -2.0843975680       -5.5403706902       -1.9442493833
 H         -1.0132963982       -5.2134316205       -0.5176397030
 H         -0.7069909283       -3.9050661591       -3.3179164524
 H          0.3619120814       -3.6322917794       -1.8873522322
 H         -2.6776814087       -3.1076400103       -2.0559917023
