  62
        -98.94518282
 C          1.8202769534        1.4016031051       -0.0501672541
 C          2.9197857861        0.6827167669        0.4810519688
 C          3.2932404340       -0.5472394065       -0.2230054747
 C          2.5985526526       -0.9295689803       -1.3096189253
 C          2.8408948331       -2.1696219967       -2.1252366610
 C          2.1471768282       -3.4109841444       -1.5471015798
 C          2.8052467984       -3.9929787824       -0.2953500760
 H          2.3690270858       -4.9809304958       -0.1344149766
 H          3.8729329290       -4.1303644844       -0.4730770259
 C          2.5933670642       -3.1530622909        0.9722074555
 H          1.7531554003       -2.4707479625        0.8150970946
 H          2.3119014149       -3.8100772514        1.7995002133
 C          3.8211684831       -2.3595211884        1.4224746461
 H          4.6143971254       -3.0516049509        1.7151799388
 H          3.5446211083       -1.7734767530        2.3031757092
 C          4.3795580359       -1.3941005557        0.3684650898
 H          5.0936349783       -0.7280589220        0.8596365823
 H          4.8977020221       -1.9494983888       -0.4128435497
 H          1.1088302625       -3.1543135835       -1.3193652749
 H          2.1425111842       -4.1795620944       -2.3237961818
 H          2.4313907041       -1.9765398513       -3.1190472310
 H          3.9117345976       -2.3536399028       -2.2169093427
 O          1.5664791858       -0.2036957183       -1.8045580517
 C          1.1008014105        0.9260032583       -1.1494714761
 O          0.0728108553        1.4101255150       -1.6589146488
 H          0.2825414600        0.4648875631        1.8976449325
 C         -0.5020770846        1.1499800940        1.5973935893
 C         -0.1581994334        2.3618147155        1.0089041085
 C         -1.1779480310        3.2224634518        0.6277309650
 C         -2.5036924570        2.8589888983        0.7982489738
 C         -2.8386039049        1.6222444535        1.3196122145
 C         -1.8232734368        0.7641175329        1.7195058242
 N         -2.1586136096       -0.5555568234        2.1481333008
 S         -1.9627832531       -1.6334402978        0.8564111278
 O         -2.2994302331       -2.9394661086        1.3851888888
 O         -0.6433440320       -1.5312316469        0.2704503949
 C         -3.2190489326       -1.0812886764       -0.2697330040
 C         -4.5063123813       -1.5472269117       -0.0825086263
 C         -5.5136211881       -1.0829661611       -0.9120412967
 C         -5.2172506455       -0.1597292149       -1.9041516373
 C         -3.9203859928        0.2990794027       -2.0753129192
 C         -2.9047814733       -0.1622663995       -1.2509559820
 H         -1.8878622553        0.1852111239       -1.3584958517
 H         -3.6856894660        1.0201835906       -2.8417441595
 H         -6.0014756526        0.2059720202       -2.5482043781
 H         -6.5232798387       -1.4375444739       -0.7811761563
 H         -4.6835723376       -2.2641563025        0.7022467027
 H         -1.5694189044       -0.8774536532        2.9058097101
 H         -3.8657322907        1.3085446985        1.4110275511
 H         -3.2856055172        3.5349036174        0.4885959003
 H         -0.9344177920        4.1632798776        0.1618180248
 C          1.3073713164        2.5940184355        0.7440977896
 H          1.8469269895        2.5296615411        1.7045659943
 C          1.6269106676        3.9596340730        0.1604736877
 C          2.8254805694        4.1549520961       -0.7181768097
 C          1.4475950124        4.2825876725       -1.2913953170
 H          1.0948234588        5.2693669078       -1.5535729620
 H          1.0815498937        3.4999419616       -1.9360403743
 H          3.4180620685        5.0482188864       -0.5891822956
 H          3.4042960150        3.2782061611       -0.9715111583
 H          1.4149077621        4.7579146505        0.8654095173
 O          3.5484494995        1.0444909244        1.5138554792
