  62
        -98.94338058
 C          1.8785621195        0.8267868204        0.6892357801
 C          2.2402252897        0.4357676808       -0.6226906100
 C          3.6794674997        0.4653523311       -0.9219257299
 C          4.5423196196        0.8796964009        0.0238550003
 C          6.0352455396        0.9043137912       -0.1282520696
 C          6.6623550997       -0.4113204889        0.3541140101
 C          5.9902068799       -1.6607482588       -0.2154016503
 H          6.5337212800       -2.5265032788        0.1693689095
 H          4.9701202899       -1.7249971390        0.1705147496
 C          5.9546090601       -1.7189659184       -1.7489405403
 H          6.6867895900       -1.0245984682       -2.1626675700
 H          6.2439034902       -2.7226682582       -2.0675370006
 C          4.5825971101       -1.4342993684       -2.3631609203
 H          3.8280526101       -2.0632550486       -1.8836761006
 H          4.6187676802       -1.7146019781       -3.4192442204
 C          4.1091298099        0.0230582415       -2.2923655600
 H          4.8853128198        0.6821339218       -2.6863135197
 H          3.2230172999        0.1150830616       -2.9269906000
 H          7.7199279297       -0.4095692487        0.0840401302
 H          6.5901109596       -0.4503101292        1.4436040401
 H          6.2868604996        1.0778143815       -1.1725969295
 H          6.4289411294        1.7256835611        0.4727834707
 O          4.1517860394        1.2809848805        1.2612031804
 C          2.8167703294        1.2489435903        1.6300442603
 O          2.5965335592        1.6129661199        2.8036029004
 H         -2.0911101403        0.0952329500        0.2314042695
 C         -1.4725927303       -0.7550303100        0.4662535994
 C         -0.1729547303       -0.5722033299        0.9135909295
 C          0.5870973198       -1.6968861199        1.2239610193
 C          0.0702961700       -2.9673190099        1.0633259289
 C         -1.2268612700       -3.1448544400        0.6154054787
 C         -2.0023695901       -2.0305919800        0.3236245989
 N         -3.3217046200       -2.1734075600       -0.1317088412
 S         -4.5158037602       -1.1671565704        0.4701187890
 O         -4.2433237204       -0.7721038507        1.8322765991
 O         -5.7492815701       -1.8948941805        0.2562456787
 C         -4.5053025903        0.2563453399       -0.5986573606
 C         -4.2688168802        0.0848510104       -1.9482133506
 C         -4.3120056802        1.1921505906       -2.7802683203
 C         -4.5990589504        2.4431258604       -2.2550650900
 C         -4.8402334906        2.5975291600       -0.8987265300
 C         -4.7930961705        1.4946530398       -0.0599279903
 H         -4.9613856406        1.5721318794        1.0024041397
 H         -5.0627800307        3.5708985898       -0.4908645597
 H         -4.6330691505        3.3028394406       -2.9056503998
 H         -4.1213214201        1.0764208409       -3.8351072203
 H         -4.0458285400       -0.8999534995       -2.3232717709
 H         -3.6439214699       -3.1274386901       -0.2058646115
 H         -1.6346971698       -4.1369685300        0.4937258784
 H          0.6784832301       -3.8283534299        1.2974072487
 H          1.5968740398       -1.5611719599        1.5877853294
 C          0.4202591995        0.8028144501        1.1058079400
 H          0.4055658494        1.0274658698        2.1832325300
 C         -0.3400080206        1.8903400802        0.3733920702
 C         -1.5020496607        2.5779077399        1.0227487103
 C         -0.2040293208        3.3054379101        0.8462614906
 H         -0.1494966209        4.0931220703        0.1101700408
 H          0.4122362191        3.4774119399        1.7170618907
 H         -1.7797002708        2.2618968796        2.0174660102
 H         -2.3378613907        2.8667797999        0.4034046803
 H         -0.3783290405        1.7194325105       -0.6964647999
 O          1.4080485298        0.0774423110       -1.4955180502
