  62
        -98.93555329
 C         -2.2708273411       -1.1165760112       -0.5764482610
 C         -3.4390936557       -0.8075193480        0.1651453051
 C         -4.0876347302        0.4857410827       -0.1079414812
 C         -3.5380634300        1.3180557669       -1.0115840370
 C         -3.9772226135        2.6763587171       -1.5172856417
 C         -5.0621985026        3.4662219736       -0.7904183695
 C         -4.6620546151        3.9766402700        0.5936183779
 H         -3.9091783511        4.7594273116        0.4706876004
 H         -5.5403546174        4.4298397630        1.0582710592
 C         -4.0832398631        2.9300603337        1.5427482332
 H         -3.8323570662        3.4323720809        2.4811619917
 H         -3.1495384355        2.5372408387        1.1334539791
 C         -5.0110938804        1.7631657035        1.8750357188
 H         -5.9587900067        2.1453335228        2.2593265395
 H         -4.5360683393        1.1829954904        2.6708861325
 C         -5.3053860776        0.7997302681        0.7127305007
 H         -5.6400008068       -0.1501652889        1.1395444145
 H         -6.1069367755        1.1751348929        0.0812658254
 H         -5.2804980228        4.3388484253       -1.4119471955
 H         -5.9769973816        2.8838918707       -0.7330669506
 H         -3.0665966371        3.2820526596       -1.5684607399
 H         -4.2992411371        2.5169610397       -2.5523118186
 O         -2.4086758032        0.9808461003       -1.6982323641
 C         -1.7457422931       -0.2197121708       -1.5046352178
 O         -0.7336365501       -0.3455760986       -2.2230565228
 O         -3.9334568485       -1.5923325874        1.0180127202
 C         -1.5956186673       -2.4470047346       -0.2816903874
 C         -0.3882070896       -2.2067331620        0.5925177706
 C         -0.4494313083       -2.4474990967        1.9606994459
 C          0.6343871939       -2.1698639821        2.7750578148
 C          1.7989494550       -1.6426277188        2.2454074665
 C          1.8646677832       -1.3880964066        0.8819098831
 C          0.7828981909       -1.6820010115        0.0647427515
 H          0.8341365860       -1.4566929548       -0.9898188647
 N          3.0422645743       -0.8344027308        0.3235550527
 S          3.4532718951        0.7017248920        0.9018655725
 O          3.8385147594        0.5791457235        2.2850343956
 O          2.3936599112        1.6486831129        0.6224896938
 C          4.8857053328        1.0579811141       -0.0953922352
 C          6.1115488411        0.5596165471        0.3019387473
 C          7.2225302640        0.8076774928       -0.4881726667
 C          7.0893475669        1.5440263134       -1.6560017374
 C          5.8519719964        2.0371018807       -2.0417908261
 C          4.7363819240        1.7913286786       -1.2566211961
 H          3.7561604145        2.1608867951       -1.5143728620
 H          5.7506804320        2.6105468111       -2.9492314899
 H          7.9552213058        1.7373192350       -2.2693558838
 H          8.1866566547        0.4274119561       -0.1916395280
 H          6.1667276762       -0.0000643275        1.2207142375
 H          2.9500776331       -0.7665090087       -0.6833487678
 H          2.6413754070       -1.4006081728        2.8720981910
 H          0.5713125405       -2.3616807009        3.8357079266
 H         -1.3645266375       -2.8352726920        2.3851619069
 H         -2.3278853626       -3.0146693764        0.3077013306
 C         -1.2640972791       -3.2394774358       -1.5295110823
 C         -0.9902724688       -4.7073325814       -1.4039759551
 C         -2.2571265217       -4.2336714488       -2.0490999508
 H         -2.3655452727       -4.3410616389       -3.1179400519
 H         -3.1823157911       -4.3479008409       -1.5033772395
 H         -0.2264600246       -5.1439408088       -2.0287327176
 H         -1.0557461320       -5.1432403953       -0.4185774454
 H         -0.6979236354       -2.6803066409       -2.2627156223
