  62
        -98.94447891
 C         -1.1785799306       -1.7236939088        0.3053616992
 C         -1.7065510599       -0.6888604085        1.1148306492
 C         -2.9287240595       -0.0435821977        0.6173766193
 C         -3.4371943398       -0.4250280573       -0.5687370607
 C         -4.6357847695        0.1940798334       -1.2262877706
 C         -4.2296057988        1.3592188432       -2.1397565406
 C         -3.2969794281        2.3717101126       -1.4745581506
 H         -2.3372326684        1.8926819920       -1.2667635006
 H         -3.1099329376        3.1648935825       -2.2011170805
 C         -3.8482755677        2.9827252529       -0.1790952905
 H         -3.6740118570        4.0602081728       -0.1984251405
 H         -4.9270463478        2.8311482736       -0.1273374305
 C         -3.1970634279        2.4475078824        1.0970018794
 H         -3.4936420175        3.0928681526        1.9278819995
 H         -2.1107948979        2.5038135218        1.0032223994
 C         -3.5617060288        1.0095116527        1.4830776194
 H         -3.1836347789        0.8320254624        2.4941050494
 H         -4.6472632189        0.8913723733        1.4975056594
 H         -5.1371726785        1.8638678438       -2.4763199905
 H         -3.7230193191        0.9502239229       -3.0169599106
 H         -5.3249894692        0.5427006139       -0.4595543905
 H         -5.1314517900       -0.5708255162       -1.8264493506
 O         -2.8818922805       -1.3979473177       -1.3347944307
 C         -1.7505344909       -2.0828768584       -0.9153603308
 O         -1.3685966815       -2.9672416686       -1.7039862209
 O         -1.1853888696       -0.3274234689        2.2041605292
 C          0.0532515689       -2.4701974196        0.7875499791
 C          1.1846115790       -2.2722616803       -0.1897420909
 C          1.7137020383       -3.2964135206       -0.9637929010
 C          2.7356930785       -3.0391973412       -1.8603876210
 C          3.2669050693       -1.7690591215       -1.9813055410
 C          2.7516846699       -0.7376339312       -1.2037797310
 C          1.7087619698       -0.9914730006       -0.3279739409
 H          1.3044660004       -0.1852272204        0.2690308291
 N          3.2740456808        0.5621142285       -1.2997781609
 S          3.5457241814        1.4422760982        0.0999914291
 O          4.6324205319        2.3374325476       -0.2416399209
 O          3.7692464709        0.5801184081        1.2361578591
 C          2.0792254920        2.4225128992        0.3239638092
 C          1.6119100924        3.1514316995       -0.7520251507
 C          0.5276738430        3.9938620302       -0.5691320307
 C         -0.0607325469        4.1005049405        0.6821450694
 C          0.4147361927        3.3550354501        1.7502203493
 C          1.4950010221        2.5055947495        1.5715401092
 H          1.8899363718        1.9038884992        2.3748323592
 H         -0.0523641973        3.4257984704        2.7195391893
 H         -0.8958904265        4.7677488610        0.8264657294
 H          0.1476372433        4.5684415504       -1.3982949906
 H          2.1042642823        3.0516728292       -1.7050088208
 H          4.0477409808        0.6534717480       -1.9427515510
 H          4.0736631994       -1.5719038420       -2.6712370010
 H          3.1308392679       -3.8416057614       -2.4648663611
 H          1.3173317877       -4.2939372903       -0.8760514210
 H          0.3373718093       -1.9853358998        1.7328753591
 C         -0.2729633620       -3.9225309694        1.0656372291
 C          0.6145422976       -4.7236281700        1.9692017590
 C         -0.7506004621       -4.3128122891        2.4307415991
 H         -1.5176874126       -5.0683577487        2.5115357191
 H         -0.8275852316       -3.5320358891        3.1732928591
 H          0.7861749569       -5.7635396501        1.7364922089
 H          1.4684028179       -4.2219390805        2.3994306690
 H         -0.7279305723       -4.4233886291        0.2188449091
