  62
        -98.94528002
 C         -2.4761469361       -1.1784959933       -0.0273699648
 C         -3.1809502449       -0.3640221092        0.8900184560
 C         -3.7845562208        0.8555897875        0.3380889045
 C         -3.6318299756        1.1299651629       -0.9705148664
 C         -4.1325285274        2.3713292822       -1.6492445585
 C         -3.0646308621        3.4743323295       -1.6380945559
 C         -2.4406103848        3.7168594275       -0.2634447949
 H         -1.8660578042        2.8332326882        0.0275224150
 H         -1.7244083267        4.5348513159       -0.3706737996
 C         -3.4504086187        4.0590568416        0.8415421135
 H         -3.0614208441        4.8989630568        1.4209508342
 H         -4.3913893879        4.3810969780        0.3943720786
 C         -3.7218743195        2.9234021078        1.8299878869
 H         -2.7727565853        2.5370613425        2.2111488184
 H         -4.2707884753        3.3370224129        2.6800713306
 C         -4.5395445563        1.7450178305        1.2857476094
 H         -4.8158608946        1.1130257281        2.1348188451
 H         -5.4544876674        2.1162051011        0.8204398491
 H         -3.5173483489        4.3985901337       -2.0015691923
 H         -2.2654792520        3.1917516082       -2.3278522401
 H         -4.3747847502        2.1241345454       -2.6840603996
 H         -5.0335011138        2.7175919723       -1.1467418197
 O         -2.9492504095        0.3234687773       -1.8222600812
 C         -2.3355561016       -0.8373681208       -1.3730946097
 O         -1.7179943454       -1.4643072681       -2.2535001359
 H         -0.3399943110       -0.3960476494        1.3562711495
 C          0.2870890630       -1.1121404036        0.8378287771
 C         -0.2934263325       -2.2641104037        0.3191840079
 C          0.5210043657       -3.1737795864       -0.3403895282
 C          1.8741819407       -2.9203980842       -0.4907967239
 C          2.4432472434       -1.7662271568        0.0146383007
 C          1.6388308157       -0.8540329662        0.6858099754
 N          2.2109974730        0.3260433496        1.2062981033
 S          2.9123544043        1.3621890750        0.0790455903
 O          2.8738105365        2.6720201236        0.6933970326
 O          2.2818620505        1.2407662362       -1.2158379349
 C          4.6015052922        0.8070999017       -0.0018211871
 C          5.1295500700        0.3795155004       -1.2040287318
 C          6.4475846777       -0.0490126794       -1.2413355702
 C          7.2087048598       -0.0422876585       -0.0823809965
 C          6.6634904624        0.3926270719        1.1166980203
 C          5.3473373981        0.8237087161        1.1607673666
 H          4.8854475601        1.1736276904        2.0687673214
 H          7.2587411951        0.3965309480        2.0154821784
 H          8.2331245010       -0.3781610573       -0.1141335954
 H          6.8728879227       -0.3871227651       -2.1725903703
 H          4.4961180863        0.3853953180       -2.0768581695
 H          1.5702368131        0.8497249711        1.7867309904
 H          3.4947588271       -1.5634719730       -0.1073902725
 H          2.4940269857       -3.6323140139       -1.0140075860
 H          0.0946296109       -4.0742592511       -0.7503792557
 C         -1.7842979769       -2.4304361371        0.4845823721
 H         -2.0074391594       -2.4670295818        1.5612893994
 C         -2.3435584674       -3.6731110892       -0.1723048161
 C         -2.2623100105       -4.9938952528        0.5313895469
 C         -3.5817239656       -4.2970379144        0.3958659477
 H         -4.3139677563       -4.7017023442       -0.2864720033
 H         -4.0117023307       -3.8364304267        1.2733856748
 H         -2.0905001917       -5.8819324405       -0.0575985442
 H         -1.7971631244       -5.0126757670        1.5052521613
 H         -2.2417046807       -3.6571031691       -1.2512869947
 O         -3.2905305590       -0.6383901960        2.1164826251
