  62
        -98.94649165
 C          1.1974560777        1.1374223741        0.5653957005
 C          1.6769247656        0.5984835592       -0.6537594026
 C          2.4761993477       -0.6286580364       -0.5309614392
 C          2.6034054790       -1.2304191947        0.6645278665
 C          3.3616246972       -2.4998382489        0.9428944244
 C          4.8653718325       -2.2883749711        1.1683549286
 C          5.6698058829       -1.9404046445       -0.0849029020
 H          6.7255775267       -2.0345125423        0.1770900039
 H          5.4627505318       -2.6742547675       -0.8643866099
 C          5.4204079317       -0.5253638259       -0.6257714199
 H          6.3766695032       -0.0510636186       -0.8578048908
 H          4.9430196811        0.0811396647        0.1473320328
 C          4.5682989398       -0.4718786022       -1.8941163213
 H          5.1017815812       -0.9583354001       -2.7137160942
 H          4.4218305506        0.5769962951       -2.1638025129
 C          3.1870259814       -1.1255061476       -1.7535769894
 H          2.5858969143       -0.8490656359       -2.6227811449
 H          3.2930985193       -2.2096646936       -1.7250079416
 H          5.2660990078       -3.2154126385        1.5849975078
 H          4.9996964122       -1.5036254188        1.9165178521
 H          3.2128625233       -3.2071918853        0.1267001785
 H          2.9364768993       -2.9242238129        1.8550300881
 O          2.0140489217       -0.7477426001        1.7912269664
 C          1.3333238935        0.4564707259        1.7759957995
 O          0.8857508151        0.8052286195        2.8892750142
 O          1.4663576340        1.1075018148       -1.7829239694
 C          0.4360535884        2.4545996118        0.5969557971
 C         -0.9406504947        2.2138549455        0.0282076698
 C         -1.3740544998        2.6991929260       -1.1973961844
 C         -2.6356878028        2.3766066857       -1.6703826029
 C         -3.4871349239        1.5716343582       -0.9356023789
 C         -3.0610155848        1.0849047891        0.2937503904
 C         -1.7997646546        1.4065592054        0.7652883947
 H         -1.4634547149        1.0188509857        1.7189052484
 N         -3.9125299314        0.2387391248        1.0424336164
 S         -4.2220360486       -1.2404792800        0.3165406759
 O         -5.1253364826       -1.0374762784       -0.7867605715
 O         -4.6902568053       -2.1069055215        1.3741630990
 C         -2.6350760248       -1.7881283771       -0.2854769902
 C         -1.7765539358       -2.4126872671        0.5969631175
 C         -0.5214226637       -2.7946749969        0.1536349269
 C         -0.1450082886       -2.5352305446       -1.1549945184
 C         -1.0128702273       -1.8946559973       -2.0246875124
 C         -2.2717581621       -1.5153170748       -1.5886038513
 H         -2.9782115432       -1.0222374763       -2.2358439726
 H         -0.7089689543       -1.6843317443       -3.0372372624
 H          0.8318158160       -2.8325591040       -1.4998008887
 H          0.1605269702       -3.2858395535        0.8295093067
 H         -2.1073745884       -2.6029501941        1.6058985337
 H         -3.5691039923        0.0778603726        1.9796520705
 H         -4.4656678915        1.2988521223       -1.2965058698
 H         -2.9592514498        2.7568855682       -2.6272836668
 H         -0.7195693090        3.3168559389       -1.7893301102
 H          0.3160698241        2.7056911522        1.6603030413
 C          1.2019065274        3.5686975010       -0.0815167578
 C          0.8339932552        4.9924694094        0.2052058309
 C          2.1163971687        4.4279512824        0.7366071293
 H          3.0465330050        4.7553625520        0.2968281350
 H          2.1845592530        4.2215860117        1.7951570573
 H          0.8837964111        5.7112076512       -0.5983219131
 H          0.0299181552        5.1690078918        0.9037766792
 H          1.5237844566        3.3174537647       -1.0840527140
