  62
        -98.94022696
 C         -1.4995859963       -1.5897399356       -0.1580062131
 C         -2.5899610897       -1.2363962148        0.6768496696
 C         -3.5013994140       -0.1955387561        0.1738458426
 C         -3.2673600461        0.3495707632       -1.0322092212
 C         -4.0801287022        1.4070844715       -1.7279623949
 C         -3.5062257520        2.8132387363       -1.4915753046
 C         -3.9471311144        3.4861190432       -0.1912252772
 H         -3.3325397025        4.3802951420       -0.0646944301
 H         -4.9833031162        3.8155017154       -0.2934053008
 C         -3.8357226788        2.6246993722        1.0698893094
 H         -2.8919358950        2.0767930315        1.0644552050
 H         -3.8164318576        3.2950821671        1.9312419973
 C         -5.0085345446        1.6453166838        1.2326465174
 H         -5.7940298990        1.9119576389        0.5255454883
 H         -5.4390916785        1.7600965610        2.2294189110
 C         -4.6551795768        0.1581755669        1.0710166099
 H         -4.3871438002       -0.2618489403        2.0453353224
 H         -5.5431189135       -0.3858180942        0.7321158713
 H         -2.4167156942        2.7410642379       -1.5207194345
 H         -3.8074296642        3.4551263703       -2.3220600298
 H         -4.0222859652        1.1879031049       -2.7966500705
 H         -5.1192732342        1.3512624326       -1.4165106707
 O         -2.1925216262        0.0033095552       -1.7911500971
 C         -1.2795917918       -0.9560345585       -1.3803714729
 O         -0.3495135464       -1.1367123203       -2.1906864721
 H          1.6169787195       -2.0016265008       -1.1509164491
 C          1.7372907059       -1.7419634132       -0.1109463119
 C          0.7291215447       -2.0400318832        0.7934888816
 C          0.8929366765       -1.6590058861        2.1217389068
 C          2.0390292218       -1.0026320145        2.5334307786
 C          3.0330788726       -0.6870528921        1.6238349120
 C          2.8675712045       -1.0466720915        0.2928846919
 N          3.8295773952       -0.6430141438       -0.6547271319
 S          4.1877748011        0.9960614641       -0.6320093242
 O          4.4609510985        1.3592741765       -2.0051277469
 O          5.2658688593        1.2315831307        0.2972210926
 C          2.7109543871        1.8075102768       -0.0350868556
 C          1.5055345173        1.5411897015       -0.6539238034
 C          0.3556201520        2.1278125826       -0.1528201774
 C          0.4243832003        2.9773100331        0.9397138737
 C          1.6446963485        3.2470510980        1.5391266657
 C          2.7979166312        2.6521948217        1.0532716407
 H          3.7642403323        2.8186102758        1.5009777171
 H          1.6983645728        3.9095557412        2.3878325575
 H         -0.4785845259        3.4257657343        1.3238114273
 H         -0.5912655297        1.9012212563       -0.6173478912
 H          1.4563225104        0.8756230508       -1.5018993287
 H          3.5993864276       -0.9341569232       -1.5947402903
 H          3.9233872171       -0.1541854467        1.9171760158
 H          2.1548717035       -0.7216868056        3.5688160738
 H          0.1014679566       -1.8691815862        2.8266417046
 C         -0.5615110705       -2.6777911065        0.3430349750
 H         -1.0575972487       -3.0976846889        1.2278003040
 C         -0.3608486655       -3.7859985059       -0.6699684804
 C          0.2348256508       -5.0846034926       -0.2178816137
 C         -1.2149106981       -5.0143029806       -0.5902031236
 H         -1.5354453238       -5.4789079724       -1.5107224358
 H         -1.9484990294       -5.0637778892        0.2010950798
 H          0.4857456522       -5.1794238330        0.8277521795
 H          0.9126618749       -5.6002024444       -0.8808029032
 H         -0.1045785686       -3.4314274656       -1.6602485821
 O         -2.7986201291       -1.7764612975        1.7952006868
