  62
        -98.93462545
 C         -2.3474620198       -1.1912765603        0.1110146159
 C         -3.2532331447       -0.5047967584        0.9556446047
 C         -4.1342209837        0.4918893080        0.3227523071
 C         -4.0077894954        0.7397694356       -0.9942208893
 C         -4.7876118310        1.6541333538       -1.9157014152
 C         -5.6921821731        2.7461722752       -1.3505936798
 C         -4.9581765948        3.8730165374       -0.6247593152
 H         -4.3907980721        4.4490417800       -1.3601061305
 H         -5.7038728622        4.5385776875       -0.1845766014
 C         -3.9836437381        3.4308044713        0.4641589470
 H         -3.1730413689        2.8507064936        0.0175299950
 H         -3.5344220988        4.3294045542        0.8961529638
 C         -4.6001397607        2.6254129963        1.6066030409
 H         -3.8374405480        2.5192825984        2.3832468495
 H         -5.4376525051        3.1784716654        2.0360870500
 C         -5.0829188897        1.2115318853        1.2375808747
 H         -5.1301370671        0.6215181106        2.1576187472
 H         -6.0835407150        1.2334269303        0.8123381395
 H         -6.4521321223        2.3115562692       -0.7079494496
 H         -6.2142980020        3.1888813560       -2.2031325158
 H         -4.0454106419        2.1106854590       -2.5780941717
 H         -5.3951940809        0.9931880931       -2.5437950903
 O         -3.0828804502        0.0908896056       -1.7587326832
 C         -2.2272776267       -0.8716255154       -1.2411472537
 O         -1.4325684077       -1.3374635845       -2.0767295268
 H         -0.0705229912        0.0140998639        1.0915455789
 C          0.5444461791       -0.7337951265        0.6038762245
 C         -0.0044667107       -1.9811251876        0.3287073428
 C          0.7945403757       -2.9311163822       -0.2919430009
 C          2.1009260039       -2.6295168432       -0.6367033681
 C          2.6370362472       -1.3830691887       -0.3739880622
 C          1.8484479490       -0.4254339076        0.2509911768
 N          2.3794401348        0.8516250904        0.5067193627
 S          3.8518723507        0.9517145621        1.3072241272
 O          4.0552703904       -0.1792297605        2.1829027643
 O          3.8530142292        2.2562325582        1.9331766674
 C          5.0571596290        0.9358325519       -0.0026791665
 C          4.9472454085        1.8847350878       -1.0001516592
 C          5.8830276388        1.8922218375       -2.0220585887
 C          6.9085447454        0.9582994361       -2.0274822631
 C          7.0070247223        0.0144227431       -1.0167497325
 C          6.0735383466        0.0008187068        0.0080471646
 H          6.1062331456       -0.7174983714        0.8116318734
 H          7.8051674347       -0.7103563362       -1.0227350554
 H          7.6351280330        0.9665846167       -2.8245347284
 H          5.8094427885        2.6246213236       -2.8098260533
 H          4.1374103337        2.5939609606       -0.9579613347
 H          1.7135373283        1.4956476415        0.9081309616
 H          3.6509573763       -1.1431435909       -0.6495313090
 H          2.7083981365       -3.3756970223       -1.1257341192
 H          0.3897844302       -3.9018979584       -0.5252441936
 C         -1.4342658641       -2.2254008946        0.7434903503
 H         -1.5053505549       -2.0230097117        1.8261234811
 C         -1.8860865543       -3.6647199131        0.5473835488
 C         -3.3282400010       -3.9965378417        0.3094848840
 C         -2.3237143108       -4.1963576704       -0.7833883172
 H         -2.0490137057       -5.2077855417       -1.0452274931
 H         -2.3242908793       -3.5133349087       -1.6178832980
 H         -3.7414364323       -4.8663967097        0.7977566606
 H         -4.0234710874       -3.1741129155        0.2210698614
 H         -1.3382185645       -4.3492005939        1.1880547832
 O         -3.3269450712       -0.7165292368        2.1966028075
