  62
        -98.94229624
 C          1.8083695944        1.2024885961       -0.1283429830
 C          3.1550754785        1.2472719729        0.3055361674
 C          4.0442031723        0.2330317536       -0.2714263469
 C          3.5627253891       -0.6405768452       -1.1746819527
 C          4.3493409508       -1.7190300925       -1.8689495541
 C          4.4801422940       -3.0149639567       -1.0567621158
 C          5.4273981205       -2.9384716419        0.1412769172
 H          5.5903107215       -3.9614222721        0.4862864614
 H          6.3919855549       -2.5476676517       -0.1841147454
 C          4.8990531239       -2.1005762830        1.3140323581
 H          5.0558978142       -2.6431425369        2.2489673286
 H          3.8215712253       -1.9585394720        1.2033220813
 C          5.5655269242       -0.7332826642        1.4675486018
 H          6.6227029913       -0.8656546909        1.7078339585
 H          5.0930855162       -0.2134662268        2.3049665876
 C          5.4555069225        0.1664077364        0.2291799178
 H          5.7566336708        1.1780676001        0.5118692437
 H          6.1220879614       -0.1901437911       -0.5556719052
 H          4.8480690284       -3.7883489180       -1.7348846052
 H          3.4864395948       -3.3158469106       -0.7172890936
 H          5.3415236431       -1.3446971198       -2.1222839295
 H          3.8161663339       -1.9449870442       -2.7949602719
 O          2.2661047590       -0.6329754412       -1.5847176099
 C          1.3526061715        0.2680697907       -1.0578696591
 O          0.1926293022        0.1345680389       -1.4924199118
 O          3.5879566501        2.0886222400        1.1370765949
 C          0.8182848841        2.2025176382        0.4414135243
 C         -0.3552616346        1.4645238551        1.0332028601
 C         -0.1117251106        0.4563799703        1.9634411172
 C         -1.1451843801       -0.2917391708        2.4921114618
 C         -2.4505569821       -0.0547736766        2.0962827431
 C         -2.7055323721        0.9573855744        1.1834666944
 C         -1.6678511976        1.7206915701        0.6679936905
 H         -1.8953108513        2.4908934013       -0.0528965080
 N         -4.0501073422        1.1530586775        0.7559966101
 S         -4.3931269592        0.2934979489       -0.6614740739
 O         -3.6640708768        0.8500254981       -1.7815342596
 O         -5.8339025112        0.3256326419       -0.7992560160
 C         -3.8467018505       -1.3556688329       -0.2914737690
 C         -2.5419758466       -1.7157204433       -0.5662363570
 C         -2.1261813651       -2.9961019702       -0.2344305334
 C         -3.0103965148       -3.8834665822        0.3596956444
 C         -4.3175475501       -3.5037033521        0.6256204806
 C         -4.7419195995       -2.2259222764        0.2998205438
 H         -5.7470422638       -1.8833893502        0.4839380345
 H         -5.0027747271       -4.1969563639        1.0862598535
 H         -2.6767754977       -4.8768393606        0.6158414302
 H         -1.1079383343       -3.2861511137       -0.4406764289
 H         -1.8701183650       -1.0040225436       -1.0229122663
 H         -4.2510025714        2.1269070369        0.5636751268
 H         -3.2683915952       -0.6397990891        2.4839493842
 H         -0.9343754106       -1.0711370258        3.2079977974
 H          0.9109269766        0.2598893291        2.2561746355
 H          1.3541288814        2.7200727389        1.2507550717
 C          0.4335372459        3.2190739619       -0.6128110523
 C         -0.0024909220        4.5953191416       -0.2090357430
 C          1.3353846138        4.3910329327       -0.8523128584
 H          1.4790081519        4.7319907066       -1.8666750890
 H          2.2188956631        4.4688604160       -0.2359346901
 H         -0.7780470300        5.0799875491       -0.7834487179
 H         -0.0281516063        4.8220063284        0.8461633721
 H         -0.0374863898        2.7661150301       -1.4796472380
