  62
        -98.93390123
 C         -2.3099700305       -1.4784106236        0.0477106355
 C         -2.9675199655       -0.6913152116        1.0284964734
 C         -3.7638541167        0.4406531903        0.5399586808
 C         -3.8376108107        0.6756882140       -0.7819022777
 C         -4.6351337595        1.7556284702       -1.4636362155
 C         -4.1974773381        3.2047042620       -1.1751236358
 C         -4.9611264520        3.8782201439       -0.0280382240
 H         -5.1674519854        4.9139817752       -0.3051401591
 H         -5.9275002912        3.3858255014        0.0867642554
 C         -4.2413856229        3.9129908191        1.3234659870
 H         -3.4822405699        4.6982819962        1.3030262697
 H         -4.9753058112        4.1840391230        2.0854744029
 C         -3.5461361307        2.6180226240        1.7454067906
 H         -3.2566277249        2.7130263149        2.7939058223
 H         -2.6169344044        2.4975674292        1.1816686741
 C         -4.3924778719        1.3432751978        1.5609725374
 H         -5.4120710069        1.5959753947        1.2740468668
 H         -4.4248740800        0.7803461238        2.4958529927
 H         -4.3775920997        3.7767608954       -2.0868194355
 H         -3.1237618007        3.2294338292       -0.9871251531
 H         -4.5355841408        1.5595452462       -2.5332484046
 H         -5.6878634112        1.6352405039       -1.1980579951
 O         -3.1954462753       -0.1034552630       -1.6928476650
 C         -2.3996102943       -1.1760287365       -1.3106968107
 O         -1.8559525762       -1.7549332939       -2.2717981283
 O         -2.9012739840       -0.9372353524        2.2622021846
 C         -1.4671835276       -2.6349592041        0.5607117466
 C         -0.0465817998       -2.1698924289        0.7539872785
 C          0.5756956184       -2.2328925477        1.9943103261
 C          1.8609995735       -1.7459253054        2.1624853677
 C          2.5478154062       -1.1846610556        1.1007200665
 C          1.9322343134       -1.1153722751       -0.1424072900
 C          0.6497280428       -1.6110413095       -0.3101366453
 H          0.1735737079       -1.5497030938       -1.2784268767
 N          2.6184596375       -0.5214897354       -1.2272778476
 S          2.8492278927        1.1409488466       -1.0705867467
 O          1.7895340287        1.7486918162       -0.2954656824
 O          3.0260059487        1.6380859736       -2.4176481994
 C          4.3948975998        1.2591804356       -0.1958344965
 C          4.4398957151        1.8524882811        1.0502875037
 C          5.6554175617        1.9245316196        1.7133084964
 C          6.7965063647        1.4045148884        1.1216782060
 C          6.7343351267        0.8137996179       -0.1319436333
 C          5.5230184256        0.7396447539       -0.8007159250
 H          5.4286863092        0.2937171673       -1.7766929506
 H          7.6239117955        0.4109177050       -0.5885718705
 H          7.7401781141        1.4603474539        1.6409113191
 H          5.7057662029        2.3835113221        2.6875808340
 H          3.5247567574        2.2360264029        1.4723850625
 H          2.1604353446       -0.7009006375       -2.1112862124
 H          3.5469198819       -0.8000966370        1.2258596685
 H          2.3312000657       -1.7995410423        3.1323483680
 H          0.0366769249       -2.6470954384        2.8336348971
 H         -1.8811092321       -2.8583251254        1.5563262631
 C         -1.5910746611       -3.8958512712       -0.2836486580
 C         -0.4413852053       -4.5295971195       -1.0038571805
 C         -1.0076994596       -5.1841076809        0.2177966568
 H         -1.5806593992       -6.0917854912        0.1050276425
 H         -0.4204244189       -5.1395447119        1.1226683406
 H         -0.6401134514       -4.9671327329       -1.9704965415
 H          0.5304515693       -4.0675723732       -0.9288360792
 H         -2.5546010954       -3.9594529984       -0.7784708425
