  62
        -98.93137553
 C         -2.3430973302       -1.4490518426        0.3149580324
 C         -2.6705883121       -0.4755927883       -0.6570655225
 C         -3.7221913544        0.4980979203       -0.2913000543
 C         -4.3105679228        0.4133685722        0.9143498227
 C         -5.3832651944        1.2886054462        1.5120787866
 C         -6.5509126387        1.6801401075        0.5935453890
 C         -6.5390131550        3.1553874527        0.1888733550
 H         -7.5566844429        3.4543925090       -0.0718436144
 H         -6.2364676095        3.7500357677        1.0533302996
 C         -5.6397077536        3.4970456751       -0.9979315809
 H         -5.6110908289        4.5854632277       -1.0887173321
 H         -6.0868290439        3.1068194078       -1.9148381379
 C         -4.2046735325        2.9754042158       -0.9017803182
 H         -3.5809601393        3.5913628191       -1.5534464281
 H         -3.8216770315        3.0959078102        0.1110207808
 C         -4.0510801599        1.5143585632       -1.3512773341
 H         -4.9502256378        1.1912650097       -1.8836858899
 H         -3.2321289741        1.4367264920       -2.0734697391
 H         -7.4782441146        1.4885633075        1.1357975218
 H         -6.5578027157        1.0440503667       -0.2901315086
 H         -5.7589884891        0.7261422844        2.3698267399
 H         -4.9106284354        2.1883144175        1.9141140640
 O         -3.9576535700       -0.5388411371        1.8246868939
 C         -2.9822810237       -1.4778876007        1.5575785808
 O         -2.7788241914       -2.2832541379        2.4873525902
 H         -0.0809741715       -0.2997237702       -0.8244948398
 C          0.5562518767       -0.8471941167       -0.1455153026
 C          0.0878087513       -2.0230236596        0.4244845640
 C          0.9259225347       -2.7255537316        1.2818129018
 C          2.1994154362       -2.2592565792        1.5590083335
 C          2.6612443263       -1.0859111027        0.9900822822
 C          1.8318058418       -0.3768552840        0.1309115419
 N          2.2856450235        0.8228597765       -0.4461640453
 S          3.7617759580        0.7919567629       -1.2476956260
 O          3.7007297959        1.8741889903       -2.2052555431
 O          4.0462628566       -0.5215811789       -1.7777014645
 C          4.9401418488        1.2076955538        0.0207550855
 C          4.7548642283        2.3851364267        0.7185775469
 C          5.6654832084        2.7286407114        1.7048705593
 C          6.7416082518        1.8954414997        1.9728003007
 C          6.9159236188        0.7188858249        1.2604156351
 C          6.0076478994        0.3686765768        0.2733273868
 H          6.0990777940       -0.5387522894       -0.3020802612
 H          7.7535492406        0.0731865122        1.4697892144
 H          7.4486303382        2.1650992800        2.7413723379
 H          5.5332381054        3.6428521930        2.2608787100
 H          3.9076836810        3.0052304638        0.4769658048
 H          1.5852261425        1.2790857456       -1.0136988560
 H          3.6517929826       -0.7182718194        1.2027294870
 H          2.8395059638       -2.8145165102        2.2273975602
 H          0.5690016876       -3.6369685278        1.7388513918
 C         -1.2945053868       -2.5292051102        0.1006689044
 H         -1.5396971710       -3.3116031709        0.8357920556
 C         -1.3809151749       -3.1672695597       -1.2808783524
 C         -0.3298782099       -3.0235120994       -2.3366790429
 C         -0.4980612195       -4.3302309386       -1.6249422970
 H         -0.9238209956       -5.1646205945       -2.1612732463
 H          0.2610656480       -4.6049095550       -0.9080021484
 H          0.5471520750       -2.4331820052       -2.1193521354
 H         -0.6606484239       -2.9401515712       -3.3609793058
 H         -2.4055422649       -3.2173054858       -1.6356339086
 O         -2.1185412491       -0.3931148208       -1.7865537881
