  62
        -98.93518928
 C         -1.0073709814       -1.7484614643        0.3134193261
 C         -1.6590388810       -1.3395699074       -0.8755711176
 C         -2.7863416922       -0.4058014163       -0.7038438590
 C         -3.1298614661       -0.0061749566        0.5339093953
 C         -4.1869965838        1.0106809799        0.8593205716
 C         -3.6570611933        2.4307916149        0.5762021555
 C         -4.3882012900        3.1649411787       -0.5477345489
 H         -5.3606080889        3.5003035245       -0.1811948888
 H         -3.8039081917        4.0547652026       -0.7922748455
 C         -4.6231384840        2.3562557831       -1.8271652241
 H         -4.8962572537        3.0682711395       -2.6089304353
 H         -5.4825158530        1.6974666001       -1.6935624949
 C         -3.4350322872        1.5185830790       -2.3178893500
 H         -2.4950258771        1.9362229011       -1.9554589867
 H         -3.4069166010        1.5762401930       -3.4081452393
 C         -3.5085301100        0.0241643916       -1.9511421415
 H         -4.5560514590       -0.2840232876       -1.8904676603
 H         -3.0431919334       -0.5540349964       -2.7554343682
 H         -3.7329460968        3.0344477701        1.4817704910
 H         -2.5955633608        2.3563749309        0.3307487775
 H         -5.0814200427        0.8119273566        0.2729168309
 H         -4.4311191710        0.8991083192        1.9157724964
 O         -2.4909540414       -0.4354321517        1.6520042577
 C         -1.4270290918       -1.3186221760        1.5733062924
 O         -0.9470211484       -1.6447257894        2.6758997993
 H          0.5229441369       -0.1462995499       -0.7285167177
 C          1.4342484848       -0.7283860473       -0.7524315532
 C          1.4288031586       -2.0362018468       -0.2949894665
 C          2.6250882816       -2.7481723477       -0.3365840817
 C          3.7851912749       -2.1641847317       -0.8114985452
 C          3.7825020432       -0.8560733307       -1.2662868929
 C          2.5936937558       -0.1451923507       -1.2454846485
 N          2.5869961661        1.2046723152       -1.6835396087
 S          3.1103213834        2.2801177746       -0.5090429185
 O          2.9003503421        3.6030010422       -1.0508592975
 O          4.4623006322        1.9352904796       -0.1541808729
 C          2.0171607559        2.0031709537        0.8728962977
 C          0.8755421948        2.7709408487        0.9868420205
 C         -0.0200098746        2.4929897872        2.0071968301
 C          0.2305373060        1.4441446027        2.8783411009
 C          1.3786852262        0.6788530710        2.7471665491
 C          2.2834761270        0.9581901781        1.7356857254
 H          3.1891647220        0.3878121838        1.6055839878
 H          1.5531782228       -0.1464834127        3.4181628736
 H         -0.4772477995        1.2059595423        3.6566062182
 H         -0.9126560071        3.0880526690        2.1179574792
 H          0.7167181374        3.5751153914        0.2855229360
 H          1.6774032352        1.5025066827       -2.0094458886
 H          4.6781612954       -0.3742472218       -1.6221837122
 H          4.7033780685       -2.7308898730       -0.8262707927
 H          2.6429167606       -3.7676263719        0.0148951206
 C          0.1865893468       -2.6786437296        0.2824297398
 H          0.4021077187       -2.9195113395        1.3338585585
 C         -0.1385214042       -3.9718892364       -0.4471038324
 C          0.3505731793       -5.2881306631        0.0746708394
 C         -1.1015759870       -4.9345619814        0.1785613862
 H         -1.8108066896       -5.4422641029       -0.4574629904
 H         -1.4946193776       -4.6776829746        1.1520101014
 H          0.9258988609       -5.2896879261        0.9884745736
 H          0.6454032129       -6.0453563176       -0.6358324623
 H         -0.1985580998       -3.8418347837       -1.5208506931
 O         -1.3173154604       -1.7155585372       -2.0280225363
