  62
        -98.92872058
 C         -2.6072761426       -0.9660035972        0.7543217100
 C         -2.8918344151        0.3027843824        1.3176283136
 C         -4.2224413379        0.8725086376        1.0485979213
 C         -5.0884356788        0.1693527022        0.2988980013
 C         -6.4671538228        0.5789013642       -0.1402969694
 C         -6.4206805367        1.2480615851       -1.5244438767
 C         -6.1630838355        2.7542198207       -1.5041372633
 H         -6.0269781945        3.0743561027       -2.5397577811
 H         -7.0478334324        3.2642137943       -1.1172203960
 C         -4.9462097846        3.1991887274       -0.6886571563
 H         -4.1076320406        2.5272130325       -0.8816213808
 H         -4.6519949067        4.1900810103       -1.0402163311
 C         -5.2237135078        3.2693569333        0.8204173541
 H         -4.9141171716        4.2454069313        1.1997827311
 H         -6.2981172430        3.1990439772        0.9889015640
 C         -4.4977670284        2.2152848615        1.6686951904
 H         -5.0541056361        2.0618221724        2.5995693371
 H         -3.5115175959        2.5942798954        1.9544721690
 H         -5.6446959612        0.7498057766       -2.1113826287
 H         -7.3732591637        1.0750528523       -2.0293673329
 H         -7.0535705576       -0.3390346334       -0.2178072703
 H         -6.9298060587        1.2291589186        0.5961317705
 O         -4.7785390448       -1.0472918808       -0.2234855519
 C         -3.5410714605       -1.6451894054       -0.0289463256
 O         -3.4261870301       -2.7474601165       -0.5938309313
 O         -2.0606889828        0.9353944001        2.0248001913
 C         -1.2300942157       -1.5376992493        1.0389676600
 C         -0.2487886868       -1.1247765327       -0.0288416252
 C         -0.5199888581       -1.3311415607       -1.3777384575
 C          0.3954103504       -0.9485442680       -2.3414572542
 C          1.5897969154       -0.3470660226       -1.9850840912
 C          1.8682834265       -0.1307731071       -0.6422231445
 C          0.9517357662       -0.5271009737        0.3249450081
 H          1.1656205956       -0.3481113365        1.3701317441
 N          3.0648149324        0.5079129146       -0.2688695972
 S          4.4903856221        0.0031739350       -1.0239830807
 O          4.5479399882        0.5939810924       -2.3369015497
 O          4.5914909866       -1.4385831477       -0.9742115561
 C          5.7104681583        0.7553936488        0.0332716499
 C          6.3230815258       -0.0027235902        1.0127752580
 C          7.2508762136        0.6028842166        1.8457164908
 C          7.5454394472        1.9487178810        1.6875121663
 C          6.9220093714        2.6963042634        0.6992471022
 C          5.9943647644        2.0970967262       -0.1376681982
 H          5.4911145350        2.6354647421       -0.9236839027
 H          7.1559126499        3.7417307739        0.5785342901
 H          8.2674727774        2.4175514894        2.3372534515
 H          7.7394535657        0.0241699782        2.6130273556
 H          6.0693921468       -1.0476013497        1.0941759688
 H          3.1826616453        0.5327763263        0.7352200441
 H          2.3093066488       -0.0475432973       -2.7297299548
 H          0.1763105539       -1.1190653695       -3.3851934976
 H         -1.4514343052       -1.7986043682       -1.6607269049
 H         -0.9171332747       -1.0502957236        1.9761709041
 C         -1.2365164624       -3.0378827863        1.2952643136
 C         -0.6659657324       -4.0494953033        0.3522756043
 C          0.0421203903       -3.7452962609        1.6361754563
 H          0.0332699065       -4.4835023228        2.4235647304
 H          0.9575559706       -3.1757022017        1.5723568315
 H         -1.1894184048       -4.9878932702        0.2521112015
 H         -0.2229742723       -3.7020695193       -0.5677189938
 H         -2.1212005260       -3.3460710084        1.8433885075
