  62
        -98.94101360
 C         -2.5602664903       -0.2380313187        0.5186164104
 C         -2.2535812200        0.3227497505       -0.7461064199
 C         -2.0995333996        1.7850725704       -0.7803250307
 C         -2.2463299695        2.4952811911        0.3513599089
 C         -2.1226114390        3.9877212911        0.4555006180
 C         -0.6988922789        4.4225787709        0.8254521879
 C          0.3942222410        3.7868735501       -0.0338745317
 H          1.3445054811        4.2271289300        0.2781445181
 H          0.4566532306        2.7182333202        0.1852179189
 C          0.2158307011        3.9807622593       -1.5459791218
 H         -0.4590979186        4.8161406594       -1.7385187123
 H          1.1849460212        4.2391972288       -1.9776478919
 C         -0.2839518592        2.7374148690       -2.2849618611
 H         -0.1066697291        2.8796840384       -3.3545741212
 H          0.2971479605        1.8691439590       -1.9622595206
 C         -1.7722752893        2.4103442596       -2.1064614410
 H         -2.3721444090        3.3081254096       -2.2721303016
 H         -2.0455761195        1.6682187992       -2.8623420006
 H         -0.6425314386        5.5101632308        0.7423398973
 H         -0.5126395091        4.1508211615        1.8673499381
 H         -2.4134301988        4.4333554807       -0.4940840822
 H         -2.8086144990        4.3313274918        1.2323845578
 O         -2.5168391097        1.9209707219        1.5530727992
 C         -2.6408236301        0.5464881320        1.6700042600
 O         -2.8289542803        0.1487453827        2.8394840902
 O         -2.1282189502       -0.3501448802       -1.8019377895
 C         -2.6839521607       -1.7403696786        0.7117811213
 C         -1.5512444109       -2.4355701893       -0.0055419683
 C         -1.7074512212       -3.5405989997       -0.8299163476
 C         -0.6049030713       -4.1165086704       -1.4399106872
 C          0.6620663088       -3.5960168307       -1.2610626975
 C          0.8267180691       -2.4787524903       -0.4464230181
 C         -0.2698006908       -1.9360195796        0.1976487915
 H         -0.1333153306       -1.0859667892        0.8518714111
 N          2.0910134793       -1.8805601306       -0.3114727083
 S          2.3392242496       -0.5499431501        0.6748458009
 O          2.1831992394       -0.9037443692        2.0715997111
 O          1.5356972000        0.5438961599        0.1943455703
 C          4.0595578497       -0.2412959708        0.3256575309
 C          4.3874841200        0.5429769585       -0.7635804296
 C          5.7248298201        0.7585719779       -1.0563494296
 C          6.7069589999        0.1883132981       -0.2601681192
 C          6.3630873396       -0.5945662312        0.8316240612
 C          5.0273123195       -0.8135853906        1.1295170413
 H          4.7129181993       -1.4037228300        1.9753431816
 H          7.1285313094       -1.0333470611        1.4511284415
 H          7.7469314400        0.3578728876       -0.4901200092
 H          5.9952017904        1.3697717174       -1.9022167799
 H          3.5890188802        0.9708714584       -1.3475595499
 H          2.8700746091       -2.5210091308       -0.3363012579
 H          1.5156387787       -4.0333479712       -1.7549098371
 H         -0.7390389915       -4.9785097907       -2.0758734768
 H         -2.6905050313       -3.9429110395       -1.0113178975
 H         -2.5337936909       -1.8974548780        1.7943082614
 C         -4.0559259209       -2.3081105583        0.3774340315
 C         -5.2742034206       -1.4348447480        0.3606278009
 C         -4.7456823807       -2.0079487589       -0.9181162987
 H         -5.3079570509       -2.7977179290       -1.3944838983
 H         -4.2384942905       -1.3513175694       -1.6066802091
 H         -6.1927714808       -1.8323922475        0.7658828211
 H         -5.1360828303       -0.3791591879        0.5459547903
 H         -4.1925609212       -3.3054716181        0.7841734721
