  62
        -98.93779910
 C         -1.9878722479       -0.9274366174        0.0015065121
 C         -2.3085705537        0.0292862452        0.9892210972
 C         -2.5588760287        1.4028688994        0.5231332959
 C         -2.4528741081        1.6835248069       -0.7892769606
 C         -2.5853534935        2.9932556098       -1.5385277755
 C         -3.2575336195        4.2015846258       -0.8910007415
 C         -4.7493053862        4.0318135852       -0.6073619774
 H         -5.0970631897        4.9205125227       -0.0762468620
 H         -5.2816752277        3.9826595040       -1.5603503871
 C         -5.1291713828        2.7920845422        0.1983486166
 H         -4.8938926441        1.8941706040       -0.3766536469
 H         -6.2126031510        2.8070187886        0.3441228782
 C         -4.4768102014        2.6823142737        1.5754094433
 H         -4.9630910495        1.8583237506        2.1042060970
 H         -4.6576308244        3.5970674408        2.1429524142
 C         -2.9636883100        2.3971983547        1.5729381937
 H         -2.3843417238        3.3127102044        1.4739927123
 H         -2.7004712247        1.9491703198        2.5359065856
 H         -3.1472669421        5.0307677341       -1.5952320087
 H         -2.7286574312        4.4852991630        0.0141721072
 H         -3.1062395639        2.7497359281       -2.4700094392
 H         -1.5634739009        3.2733988395       -1.8189443381
 O         -2.1271652116        0.7267643610       -1.7070904123
 C         -1.8800118241       -0.5860703999       -1.3449852878
 O         -1.5903022953       -1.3359825981       -2.2971820204
 O         -2.3770586620       -0.2503153120        2.2190166783
 C         -1.6856493358       -2.3523315981        0.4194182350
 C         -0.2834957323       -2.7458152670        0.0192638429
 C          0.0574952439       -4.0450504753       -0.3365091778
 C          1.3635298436       -4.3597756080       -0.6703433112
 C          2.3514890384       -3.3935010188       -0.6615006679
 C          2.0195183215       -2.0878178365       -0.3127478711
 C          0.7162297946       -1.7819640233        0.0406988903
 H          0.4744156106       -0.7681486744        0.3261819280
 N          2.9911781317       -1.0753086699       -0.3529803063
 S          2.7503822405        0.3965805959        0.4200057808
 O          2.4731405765        0.1957113664        1.8261645992
 O          1.7831861860        1.1670101772       -0.3225559553
 C          4.3724265429        1.1081871404        0.2160818394
 C          5.2673377242        1.0820661339        1.2687934012
 C          6.5349475331        1.6122362563        1.0848486977
 C          6.8848774437        2.1545345030       -0.1424375812
 C          5.9754236205        2.1749877998       -1.1897370959
 C          4.7064305333        1.6473128466       -1.0120899001
 H          3.9630500877        1.6479145429       -1.7924666173
 H          6.2495322572        2.5996186342       -2.1419766508
 H          7.8716045874        2.5664364358       -0.2834057761
 H          7.2425873925        1.6005491937        1.8979922456
 H          4.9468517220        0.6573029603        2.2064405555
 H          3.9386914665       -1.4137734847       -0.2649084172
 H          3.3670232310       -3.6383776224       -0.9314164642
 H          1.6147333266       -5.3734588901       -0.9433200376
 H         -0.7009326168       -4.8106335158       -0.3535693390
 H         -1.7365411055       -2.3519449897        1.5198186781
 C         -2.7428711536       -3.2971420767       -0.1173175774
 C         -3.1694269217       -4.4963725375        0.6742044615
 C         -4.0891409213       -3.3214026734        0.5405263280
 H         -4.9661659327       -3.4159092238       -0.0818921755
 H         -4.2294268131       -2.6797417552        1.3984219775
 H         -3.4188713373       -5.4022377006        0.1424340746
 H         -2.6963302452       -4.6589688124        1.6309547233
 H         -2.7119171629       -3.3777357141       -1.1982223536
