  62
        -98.94419654
 C         -1.6815767242       -1.3165001288        0.2618875256
 C         -1.2991307741       -0.2355667681       -0.5627673219
 C         -1.8927774503        1.0743147633       -0.2501400912
 C         -2.7453085836        1.1726690014        0.7842712271
 C         -3.4901799447        2.3931752758        1.2513330503
 C         -4.8691242746        2.4906880971        0.5757411252
 C         -4.8825872742        3.2306178245       -0.7610821774
 H         -4.7102916623        4.2941083321       -0.5833187081
 H         -5.8860243244        3.1256689984       -1.1799283294
 C         -3.8649689114        2.7341989782       -1.7906560307
 H         -4.2012182306        3.0579528005       -2.7773750921
 H         -3.8502364182        1.6428969506       -1.7937252119
 C         -2.4466371508        3.2713489106       -1.5466970541
 H         -2.4865608230        4.0716980863       -0.8083578808
 H         -2.0639060221        3.7179947263       -2.4667878962
 C         -1.4230154753        2.2154708347       -1.1104044487
 H         -0.5908839936        2.7048309929       -0.5902142471
 H         -0.9964451100        1.7372308760       -1.9981791098
 H         -5.5537826140        3.0046630382        1.2534679377
 H         -5.2468405376        1.4742134070        0.4386001651
 H         -2.9007821688        3.2896822674        1.0827300240
 H         -3.6355519376        2.2711511320        2.3270103729
 O         -3.0984005154        0.1007957513        1.5485556786
 C         -2.5620970648       -1.1539666205        1.3282700733
 O         -2.9417247685       -2.0301445035        2.1338301740
 O         -0.4924801461       -0.3596379950       -1.5231500904
 C         -1.0622110035       -2.6840252694        0.0415020067
 C          0.4440329416       -2.5720917777        0.0452627062
 C          1.2621294731       -3.3058518692       -0.8053592471
 C          2.6367622548       -3.1462044533       -0.7700046152
 C          3.2222638376       -2.2378247965        0.0927978039
 C          2.4129462151       -1.5069565367        0.9543452233
 C          1.0419249239       -1.7010777588        0.9472421666
 H          0.4304740384       -1.1255970553        1.6274949552
 N          2.9514905776       -0.5467097863        1.8383408488
 S          2.5178558106        1.0505289755        1.5601339538
 O          3.2636683215        1.8152596188        2.5379216979
 O          1.0854213634        1.1902052541        1.6010301716
 C          3.1593421190        1.3976946623       -0.0684965145
 C          4.3966323049        2.0062062883       -0.1676266485
 C          4.9449266622        2.2150227314       -1.4222091160
 C          4.2537365246        1.8034810704       -2.5521663402
 C          3.0159842381        1.1911667280       -2.4342450053
 C          2.4576985732        0.9812891495       -1.1818225274
 H          1.4930735998        0.5095968560       -1.0719171026
 H          2.4724664285        0.8677114681       -3.3074492915
 H          4.6807817743        1.9612234343       -3.5300197933
 H          5.9067357088        2.6932925132       -1.5146294421
 H          4.8940304250        2.3109914828        0.7391295659
 H          3.9580179467       -0.5981344312        1.9242636003
 H          4.2919275687       -2.0913368542        0.1010527827
 H          3.2584396041       -3.7227890375       -1.4376486520
 H          0.8212092985       -3.9996695981       -1.5023978105
 H         -1.3673180234       -3.3006536041        0.9002688607
 C         -1.6091529206       -3.3075306186       -1.2274114999
 C         -1.7776529252       -4.7927322135       -1.3347794285
 C         -2.9807544929       -3.9097414975       -1.2011244959
 H         -3.6215934760       -3.7728276720       -2.0591925348
 H         -3.5068556634       -3.8959024843       -0.2573176050
 H         -1.5963005841       -5.2648580192       -2.2886307136
 H         -1.4950744760       -5.3921314700       -0.4825353278
 H         -1.3210769708       -2.7570843399       -2.1157427873
