  62
        -98.94460372
 C          2.6588431662        1.3031675684        0.1246009841
 C          2.5712889278        0.2956750172       -0.8667975527
 C          3.5788752715       -0.7699064453       -0.7820319632
 C          4.5234098955       -0.7289020261        0.1748413000
 C          5.6339732219       -1.7251212024        0.3695079035
 C          5.2267145956       -2.9634009115        1.1796001276
 C          4.3137121286       -3.9477996518        0.4476480656
 H          4.7538999511       -4.2029905423       -0.5167524270
 H          4.2833691450       -4.8616708761        1.0441031576
 C          2.8771634111       -3.4462091103        0.2424460545
 H          2.6819246006       -2.6069801000        0.9144490843
 H          2.1711051248       -4.2359957374        0.5091075141
 C          2.5523749716       -3.0171372206       -1.1886041945
 H          2.6096904035       -3.8829004079       -1.8525191534
 H          1.5229761740       -2.6473479792       -1.2084761397
 C          3.4677093819       -1.9162801630       -1.7411010834
 H          4.4530409619       -2.3245942298       -1.9650002416
 H          3.0264163078       -1.5363546392       -2.6658480265
 H          4.7413655165       -2.6340855666        2.1011459249
 H          6.1440071015       -3.4884160930        1.4554696520
 H          6.0223890443       -2.0351394271       -0.6009003215
 H          6.4260362332       -1.2045645081        0.9119848921
 O          4.5877914535        0.2704045001        1.0940226805
 C          3.6450637242        1.2837994268        1.1138866428
 O          3.7947434107        2.1039102887        2.0414718178
 H         -0.4479696161        1.7451876901       -1.4515431273
 C         -0.6425037713        1.5251552927       -0.4141241031
 C          0.3066492318        1.8350759990        0.5461422083
 C          0.0435756060        1.5085919304        1.8739529299
 C         -1.1422380974        0.8933110736        2.2272477534
 C         -2.0866222409        0.5806583844        1.2640652974
 C         -1.8251679829        0.8855051925       -0.0641880774
 N         -2.7709750533        0.5638135036       -1.0518018056
 S         -3.4790177683       -0.9568174780       -1.0195741221
 O         -2.6162012198       -1.9442775402       -0.4136002868
 O         -3.8909510864       -1.2106422723       -2.3832134993
 C         -4.9334859710       -0.7170842781       -0.0184547538
 C         -5.2019145532       -1.5811401058        1.0248710965
 C         -6.3483790183       -1.3860442084        1.7796025296
 C         -7.2024168272       -0.3363979353        1.4784803947
 C         -6.9198392434        0.5214275555        0.4258274957
 C         -5.7764050897        0.3309381219       -0.3331966214
 H         -5.5224812552        0.9732992335       -1.1596311844
 H         -7.5862053695        1.3368156441        0.1949047672
 H         -8.0932950121       -0.1860559786        2.0675738054
 H         -6.5694607791       -2.0524224573        2.5978702136
 H         -4.5057779682       -2.3799200203        1.2263399951
 H         -2.4692308463        0.7965553903       -1.9872643182
 H         -3.0076108100        0.0881831440        1.5304440780
 H         -1.3339257866        0.6501844944        3.2614165961
 H          0.7913193725        1.7325283997        2.6226116233
 C          1.6449818399        2.4350287805        0.1903483489
 H          1.9634022399        3.0765195541        1.0226352130
 C          1.6344272105        3.2570812936       -1.0812756893
 C          0.9616269546        4.5959923035       -1.0819132626
 C          2.4559427033        4.5076799093       -1.1493401027
 H          2.9467493141        4.7505031789       -2.0799368118
 H          3.0258234870        4.7787918558       -0.2725960213
 H          0.4246408858        4.9039411738       -1.9660504000
 H          0.5149111498        4.9274583775       -0.1568298917
 H          1.5757942764        2.6572440156       -1.9809872550
 O          1.7103662095        0.2795427552       -1.7859957296
