  62
        -98.94490032
 C         -2.0106909581       -1.4372762171        0.1096814899
 C         -1.9980778427       -0.5772378681       -1.0149849098
 C         -2.8729189707        0.6026872897       -0.9328083798
 C         -3.6220374474        0.8023070154        0.1659700993
 C         -4.5126276186        1.9875447057        0.3979275574
 C         -3.7621578332        3.1186257632        1.1148304068
 C         -2.4109708864        3.4609610103        0.4869488173
 H         -1.9946405100        4.2953552591        1.0548926081
 H         -1.7343650210        2.6126287045        0.6122149699
 C         -2.4780385143        3.8403950635       -0.9990122433
 H         -3.5006381805        4.1074936424       -1.2680684842
 H         -1.8617077421        4.7267781372       -1.1645405445
 C         -1.9718894584        2.7575672838       -1.9541051540
 H         -0.9883323058        2.4087132331       -1.6293331401
 H         -1.8520860408        3.2058486557       -2.9441754078
 C         -2.8835555123        1.5344094076       -2.1123171479
 H         -3.9013077956        1.8585382880       -2.3386596435
 H         -2.5137747226        0.9506425264       -2.9603309288
 H         -4.3996137911        4.0046989973        1.1198043409
 H         -3.5910025258        2.8171344388        2.1506626352
 H         -4.8959207583        2.3399019721       -0.5578143679
 H         -5.3515989869        1.6694042186        1.0191694586
 O         -3.6167897441       -0.0479913886        1.2229907754
 C         -2.8172389756       -1.1759347247        1.2235072863
 O         -2.9136059901       -1.8671217816        2.2569741819
 H          0.6511617340       -1.4791775380       -1.3865877790
 C          1.0722057233       -1.7601111207       -0.4330013514
 C          0.2673607032       -2.3926298471        0.5039454084
 C          0.8153333406       -2.7166582497        1.7397969107
 C          2.1394947338       -2.4285079294        2.0210507341
 C          2.9421821207       -1.8087391121        1.0799985718
 C          2.3981745479       -1.4627895800       -0.1505186332
 N          3.1935426554       -0.8255026965       -1.1206836011
 S          4.1042207972        0.5066790866       -0.6853819150
 O          4.4771119338        1.1341048985       -1.9321399800
 O          5.1892390856        0.0833691659        0.1640204908
 C          2.9982622495        1.5659853062        0.2278020894
 C          2.9529205217        1.4831588505        1.6048641268
 C          2.0548222184        2.2823683646        2.2942396882
 C          1.2275821512        3.1505276756        1.5994315023
 C          1.2906876649        3.2281954602        0.2164271484
 C          2.1773153030        2.4224786928       -0.4788496896
 H          2.2585818337        2.4562020898       -1.5536918740
 H          0.6505076448        3.9103054296       -0.3194960620
 H          0.5313434518        3.7734446246        2.1385001832
 H          2.0041519554        2.2256552977        3.3697456690
 H          3.6229384793        0.8092070583        2.1119153663
 H          2.6964193287       -0.6441112742       -1.9810200481
 H          3.9783681788       -1.5879997557        1.2791265734
 H          2.5533832318       -2.6936875249        2.9821110241
 H          0.1915448177       -3.1901016176        2.4842477083
 C         -1.1774469522       -2.7080743728        0.1969632134
 H         -1.5844695495       -3.2657911738        1.0506310002
 C         -1.3027225392       -3.5763680030       -1.0404772585
 C         -0.9655099954       -5.0323575515       -0.9416642999
 C         -2.3918657269       -4.6022127217       -1.1060015503
 H         -2.8796634697       -4.7762497230       -2.0534331007
 H         -3.0518474815       -4.6858368236       -0.2545317618
 H         -0.4709460278       -5.5047558041       -1.7765143773
 H         -0.6585526003       -5.4102535073        0.0219178117
 H         -1.0525535631       -3.0625062433       -1.9589316305
 O         -1.3042052712       -0.7619622381       -2.0514453279
