  62
        -98.94487761
 C         -1.9212458714       -0.1638231189        0.0563925593
 C         -2.9351172532       -1.0482512448        0.4964219600
 C         -4.2499121542       -0.4445214965        0.7479499267
 C         -4.4075130860        0.8809539520        0.5774552667
 C         -5.7046302488        1.6170632974        0.7447320992
 C         -6.4732065090        1.6937597675       -0.5819486672
 C         -6.6002631699        0.3502243345       -1.3002713296
 H         -7.1860113181        0.5205188605       -2.2062390976
 H         -5.6082027383        0.0201352365       -1.6171533582
 C         -7.2600077281       -0.7562209178       -0.4653333157
 H         -7.8057571178       -0.3146917564        0.3693062885
 H         -7.9887528224       -1.2778358915       -1.0893654598
 C         -6.2905321966       -1.8139079453        0.0654526919
 H         -5.6765493799       -2.1925146922       -0.7556459486
 H         -6.8787138904       -2.6523153148        0.4478700486
 C         -5.3574727018       -1.3572169005        1.1940463395
 H         -5.9426499744       -0.8936486325        1.9907492416
 H         -4.8671749733       -2.2468618964        1.6000227554
 H         -7.4674729160        2.0975613136       -0.3823016717
 H         -5.9511236838        2.3880166685       -1.2445833975
 H         -6.3080707219        1.1140663422        1.4978179351
 H         -5.4837948428        2.6299974209        1.0854725929
 O         -3.4024488406        1.7032381110        0.1815757471
 C         -2.1382380131        1.2049720936       -0.1007414151
 O         -1.3185747952        2.0667414532       -0.4702491446
 H          1.7394790595        0.6928959873       -0.9556395988
 C          1.5828729574        0.6200250010        0.1069043852
 C          0.4871915694       -0.0544939255        0.6200361306
 C          0.3208155827       -0.1029570030        2.0028412127
 C          1.2168498432        0.5235254142        2.8453808204
 C          2.3070747056        1.2024531720        2.3282803846
 C          2.4863487240        1.2528498105        0.9520566250
 N          3.5747189310        1.9498163694        0.4022791790
 S          4.4922609654        1.2667645714       -0.8155685757
 O          5.6981210756        2.0645003016       -0.8505734610
 O          3.7377888066        1.1972027540       -2.0400390919
 C          4.8644940757       -0.3707586792       -0.2156248557
 C          5.8969442591       -0.5154231737        0.6909074334
 C          6.1528652828       -1.7688485837        1.2219288299
 C          5.3694814123       -2.8497858991        0.8462003871
 C          4.3375177825       -2.6878428415       -0.0649662191
 C          4.0790952576       -1.4369412907       -0.6034425291
 H          3.2885951379       -1.2733798654       -1.3168091342
 H          3.7305456895       -3.5297350621       -0.3577360113
 H          5.5650503367       -3.8249383496        1.2635700346
 H          6.9581389183       -1.8992926100        1.9267559466
 H          6.4879713753        0.3486333672        0.9480665593
 H          4.1676437211        2.3985372064        1.0851301295
 H          3.0048004016        1.7007852226        2.9840472585
 H          1.0695638481        0.4828096158        3.9140780142
 H         -0.5331103356       -0.6307392216        2.4052979883
 C         -0.5443842749       -0.7270658301       -0.2501298097
 H         -0.5968347399       -1.7883116371        0.0347839338
 C         -0.2546126824       -0.6361754304       -1.7328190324
 C          0.6566104778       -1.6314401191       -2.3842606125
 C         -0.8176884612       -1.6791576730       -2.6493633197
 H         -1.1811499179       -1.3718014848       -3.6185287391
 H         -1.3915984922       -2.4764761517       -2.1998809435
 H          1.3127075892       -1.2904711636       -3.1717893783
 H          1.0750953571       -2.4057132878       -1.7588274877
 H         -0.2388241329        0.3853622813       -2.0970840513
 O         -2.7473881104       -2.2819432212        0.6733861712
