  62
        -98.93793930
 C         -2.1990396565       -0.9324176518       -0.0519012149
 C         -3.1923823378       -0.7515228561        0.9435117246
 C         -4.0851807964        0.4035472641        0.7748520230
 C         -3.8932444510        1.2301160532       -0.2691855395
 C         -4.7606908672        2.4046143954       -0.6227093804
 C         -6.0602675982        1.9152616064       -1.2937683433
 C         -7.3293026572        2.1923989493       -0.4874942155
 H         -7.5812476094        3.2512485187       -0.5759415970
 H         -8.1391134898        1.6215139048       -0.9467239278
 C         -7.2608909348        1.8501822577        1.0038984264
 H         -8.2873548757        1.8483116383        1.3766183959
 H         -6.7373852714        2.6438900935        1.5389308617
 C         -6.6070506252        0.5075931644        1.3551292495
 H         -6.6689311055       -0.1824471981        0.5134699066
 H         -7.1713425051        0.0599812537        2.1756703742
 C         -5.1433907789        0.6104838372        1.8232395067
 H         -4.9842244219        1.5735065365        2.3162491085
 H         -4.9580320484       -0.1722476404        2.5646360628
 H         -6.1655511409        2.3892379896       -2.2708480163
 H         -5.9688044334        0.8420822198       -1.4738989401
 H         -4.9844403709        2.9794047255        0.2732862481
 H         -4.1916363080        3.0336666693       -1.3077007037
 O         -2.9116039840        1.0410212385       -1.1880486368
 C         -2.0404816601       -0.0360344734       -1.1082638650
 O         -1.2007372841       -0.0725058159       -2.0290122052
 H          0.8678835601       -1.4531795066       -1.5084415308
 C          1.0682754465       -1.2788953527       -0.4631985788
 C          0.1026531548       -1.5827733257        0.4836296438
 C          0.3729522883       -1.3116684264        1.8221758799
 C          1.5808937435       -0.7558937312        2.1992619545
 C          2.5403425369       -0.4478664762        1.2499846035
 C          2.2720742402       -0.6965976910       -0.0887421646
 N          3.2319184737       -0.3707819611       -1.0631381007
 S          3.9376491558        1.1511199458       -0.9951271852
 O          3.0682523013        2.1233546473       -0.3732590351
 O          4.3589474132        1.4352289058       -2.3499340796
 C          5.3854528971        0.8930325365        0.0114343301
 C          6.2553790234       -0.1185715840       -0.3462349767
 C          7.3916734106       -0.3257822800        0.4191533676
 C          7.6397620930        0.4791117879        1.5211446258
 C          6.7587798835        1.4927606826        1.8651585334
 C          5.6195477084        1.7046884011        1.1040030310
 H          4.9031835979        2.4767400647        1.3365076031
 H          6.9530296857        2.1180215212        2.7217935469
 H          8.5251066600        0.3158444414        2.1151264570
 H          8.0791795740       -1.1129513457        0.1547334940
 H          6.0270979237       -0.7192829486       -1.2106228579
 H          2.9260125648       -0.5735116767       -2.0044816431
 H          3.4792605472       -0.0018367065        1.5346879720
 H          1.7780496693       -0.5558892990        3.2415130005
 H         -0.3855650265       -1.5285702221        2.5612026713
 C         -1.2545784734       -2.1151625893        0.0960499113
 H         -1.6473391841       -2.6937108110        0.9427100087
 C         -1.2372245238       -3.0005025346       -1.1321373846
 C         -0.6289256535       -4.3669099122       -1.0372297897
 C         -2.1134241621       -4.2151358609       -1.1722078381
 H         -2.5772943311       -4.4831421159       -2.1097220255
 H         -2.7291752597       -4.4161153380       -0.3079068184
 H         -0.2353194111       -4.6686347235       -0.0785205269
 H         -0.0712384014       -4.7434303417       -1.8809707293
 H         -1.1134562250       -2.4527161811       -2.0581728693
 O         -3.3266130929       -1.5256606018        1.9283604476
