  62
        -98.93713196
 C         -1.7863452397       -0.1858475801        0.3541509701
 C         -2.6876013096       -0.7467194007       -0.5810903797
 C         -3.9577161197       -0.0216840509       -0.7819427700
 C         -4.1824081199        1.1154979993       -0.1030704005
 C         -5.4209567401        1.9677454491       -0.1258086809
 C         -6.3740337301        1.5694177894        1.0139551392
 C         -7.3432581899        0.4365045691        0.6778724196
 H         -7.8591086499        0.1661291594        1.6021731797
 H         -8.0966699199        0.8052754387       -0.0214087706
 C         -6.7017652096       -0.8215442410        0.0866571302
 H         -5.7877094896       -1.0600336607        0.6334088403
 H         -7.3944298795       -1.6518655411        0.2374186805
 C         -6.3967476896       -0.6956256816       -1.4134044399
 H         -6.8132818594       -1.5569800419       -1.9396571996
 H         -6.9074276797        0.1830069781       -1.8072454803
 C         -4.9056690596       -0.6332799415       -1.7775879698
 H         -4.5265547994       -1.6482508215       -1.9316959694
 H         -4.7927807996       -0.1098903219       -2.7327971600
 H         -6.9622309202        2.4436277694        1.3005663088
 H         -5.7640887101        1.2896477698        1.8769093793
 H         -5.0937230602        2.9967287592        0.0379008687
 H         -5.9141197300        1.9062507086       -1.0913286909
 O         -3.2814510001        1.6300381198        0.7793548793
 C         -2.0788070000        1.0005067701        1.0324171496
 O         -1.3656217301        1.5810307706        1.8765519994
 H          1.4305943900        1.1160436605        0.5756873098
 C          1.4291036202        0.5148766101       -0.3220429200
 C          0.5305218204       -0.5358446901       -0.4528213696
 C          0.5337700105       -1.2748832706       -1.6314493393
 C          1.4120876305       -0.9602037708       -2.6519508994
 C          2.3166299204        0.0775260494       -2.5119790998
 C          2.3219195402        0.8221906499       -1.3391383301
 N          3.2351870300        1.8794829101       -1.1607646205
 S          4.1900780799        1.8569102808        0.2150905496
 O          3.4085490298        2.2011838311        1.3743933494
 O          5.2993260398        2.7328301509       -0.0932781607
 C          4.7518465102        0.1672812709        0.3171570303
 C          4.0856280503       -0.7270472888        1.1300174306
 C          4.4819583005       -2.0552057688        1.1288777812
 C          5.5293729706       -2.4634823389        0.3179018214
 C          6.1923602805       -1.5516972392       -0.4894894189
 C          5.7982877703       -0.2237660892       -0.4954855995
 H          6.2916582302        0.5191528706       -1.1011918498
 H          7.0098201406       -1.8719723193       -1.1150967988
 H          5.8309112208       -3.4989238589        0.3182012718
 H          3.9688816006       -2.7661327186        1.7568478415
 H          3.2784060602       -0.3675543187        1.7478251904
 H          3.8069291700        2.0629501899       -1.9735023105
 H          3.0068961104        0.3178718592       -3.3064797398
 H          1.3977268907       -1.5353613812       -3.5651109592
 H         -0.1804490193       -2.0722004507       -1.7561555590
 C         -0.4377592396       -0.8157921798        0.6718843805
 H         -0.0723548398       -0.2855296894        1.5620579503
 C         -0.5410796094       -2.2910674897        1.0018863010
 C          0.5689995906       -2.9389425992        1.7707230114
 C         -0.7586425794       -2.7042352891        2.4250956412
 H         -1.3962306793       -3.5527477091        2.6232271915
 H         -0.8318474496       -1.9221998088        3.1676681709
 H          0.8477771408       -3.9508073992        1.5209700418
 H          1.3943404105       -2.3113623189        2.0712756311
 H         -1.0385490993       -2.8740315400        0.2389555613
 O         -2.4708607694       -1.8085476409       -1.2209243592
