  62
        -98.94322765
 C         -2.3828693550       -0.4442245436        0.1133815846
 C         -3.4541879530       -0.4028942176        1.0373978416
 C         -4.4681461164        0.6324168695        0.7991909857
 C         -4.3138028364        1.4771553112       -0.2370221872
 C         -5.2957736777        2.5435283669       -0.6254538996
 C         -6.3174886162        2.0139216045       -1.6414985752
 C         -6.9587030457        0.6859735878       -1.2384679051
 H         -7.6826271538        0.4260459488       -2.0138765107
 H         -6.1938693422       -0.0940707907       -1.2388763785
 C         -7.6587183979        0.7072895508        0.1275441604
 H         -7.8519749100        1.7374290630        0.4289047819
 H         -8.6265218750        0.2103135951        0.0327862897
 C         -6.8964946675       -0.0118388593        1.2421073555
 H         -6.6195151844       -1.0150830644        0.9083225100
 H         -7.5698866128       -0.1258105399        2.0958166901
 C         -5.6319365534        0.6936505222        1.7481669631
 H         -5.3051796176        0.1784729784        2.6562976260
 H         -5.8659393728        1.7284696098        2.0061834484
 H         -5.8115885720        1.8727148738       -2.5993935025
 H         -7.0941383440        2.7690894078       -1.7754916168
 H         -5.8066990835        2.9021677693        0.2659485133
 H         -4.7445158209        3.3707871697       -1.0754790073
 O         -3.2568113316        1.4238429401       -1.0869095109
 C         -2.2702575261        0.4592972743       -0.9431839966
 O         -1.3700032695        0.5135655208       -1.8018327786
 O         -3.5549611891       -1.1919747221        2.0154579126
 C         -1.3087063772       -1.5032110856        0.2858573572
 C          0.0316937698       -0.8449727246        0.4992126224
 C          0.1729286988        0.0501996081        1.5571894906
 C          1.3786612927        0.6797315945        1.7950191105
 C          2.4727660738        0.4337117426        0.9829481951
 C          2.3468681442       -0.4628834436       -0.0678904999
 C          1.1334625196       -1.1007408787       -0.3001374344
 H          1.0536343172       -1.7932110699       -1.1235393655
 N          3.4475506707       -0.7101768450       -0.9028770312
 S          4.9475755723       -1.0079224982       -0.2181547306
 O          5.6745147774       -1.7586318113       -1.2186166061
 O          4.8238106267       -1.6261879160        1.0814883507
 C          5.6820592917        0.6062836592       -0.0600244867
 C          6.1789366724        1.0191396436        1.1606596089
 C          6.7610130886        2.2734815972        1.2580244710
 C          6.8362944714        3.0879088408        0.1385808866
 C          6.3347344660        2.6573802244       -1.0808112091
 C          5.7527446021        1.4042168908       -1.1850612614
 H          5.3538762542        1.0330878371       -2.1144001320
 H          6.3946709632        3.2936998424       -1.9491245827
 H          7.2886480742        4.0639630346        0.2164889736
 H          7.1518249428        2.6098528600        2.2049140342
 H          6.0936957007        0.3542812592        2.0055322885
 H          3.2552366347       -1.3466207933       -1.6623316276
 H          3.4152700145        0.9255111459        1.1597241034
 H          1.4697574585        1.3723481589        2.6180392904
 H         -0.6819915685        0.2456383187        2.1902750485
 H         -1.5732905474       -2.0381827128        1.2099712121
 C         -1.3413389001       -2.4830121815       -0.8677422162
 C         -0.8147949741       -3.8747264141       -0.6874604362
 C         -2.2900590160       -3.6409472240       -0.8083202152
 H         -2.7888696844       -3.9462961301       -1.7159552822
 H         -2.8989923992       -3.7389368523        0.0784892026
 H         -0.3017927085       -4.3452556449       -1.5129853051
 H         -0.4196223651       -4.1373612071        0.2823634647
 H         -1.2024262573       -2.0020970343       -1.8297558164
