  62
        -98.94034512
 C         -1.4642640767       -1.4761173774       -0.0029095787
 C         -2.4628301119       -0.9897331970        0.8693672733
 C         -3.2543909424        0.1582251949        0.3900646326
 C         -2.9692122307        0.6826067964       -0.8164481699
 C         -3.6560854008        1.8526561259       -1.4669783193
 C         -3.2009118846        3.2198866893       -0.9088213487
 C         -2.7228978634        3.2016982180        0.5435920750
 H         -2.0181118583        2.3786420432        0.6797859723
 H         -2.1745745098        4.1283379548        0.7337546180
 C         -3.8411691347        3.1011061586        1.5817608201
 H         -4.3640306843        4.0600668825        1.6249022052
 H         -3.3849122159        2.9284368934        2.5598233685
 C         -4.8853217821        2.0175229989        1.3238708458
 H         -5.4176303136        2.2334271781        0.4011144164
 H         -5.6217199431        2.0723378020        2.1313118112
 C         -4.3602596590        0.5822174643        1.3234869827
 H         -3.9965384883        0.3369804835        2.3274802921
 H         -5.2070249643       -0.0915417364        1.1411133436
 H         -2.3734090670        3.5793295363       -1.5235353689
 H         -4.0186021359        3.9343402432       -1.0110043625
 H         -3.4180383302        1.8097745861       -2.5313266050
 H         -4.7313658674        1.7253729241       -1.3638110440
 O         -1.9611833148        0.2160831594       -1.6023937746
 C         -1.1908296050       -0.8734895009       -1.2313580288
 O         -0.3208375152       -1.1988033258       -2.0572974226
 O         -2.6843038697       -1.4896045945        2.0072412033
 C         -0.6422438292       -2.6826381129        0.4132248070
 C          0.8196776751       -2.3159195481        0.4633249521
 C          1.8215681163       -3.0553786664       -0.1499181007
 C          3.1410869460       -2.6400185432       -0.0845216709
 C          3.4907427910       -1.4879578004        0.5946770205
 C          2.4966285664       -0.7473430235        1.2214143898
 C          1.1776624604       -1.1645001355        1.1548443257
 H          0.4046284005       -0.5814877582        1.6409743211
 N          2.8411725057        0.4392841083        1.9046503470
 S          3.5629802121        1.6234336454        0.9595441222
 O          4.9333421714        1.2547595246        0.7104742628
 O          3.3587964252        2.8625257902        1.6761793215
 C          2.6342984594        1.6128907008       -0.5606483013
 C          3.1274084459        0.9432934816       -1.6615608279
 C          2.3534593419        0.8816617029       -2.8086869331
 C          1.1066218940        1.4848000382       -2.8346515328
 C          0.6276927244        2.1561187110       -1.7210995243
 C          1.3922668062        2.2153309527       -0.5686783007
 H          1.0501602259        2.7287435564        0.3167462842
 H         -0.3468849881        2.6160844625       -1.7425830682
 H          0.4980379160        1.4226423118       -3.7224745268
 H          2.7176290387        0.3532134410       -3.6746325612
 H          4.1022104186        0.4877855850       -1.6014534836
 H          2.0627258211        0.8421991633        2.4073725792
 H          4.5107186548       -1.1426035330        0.6441154038
 H          3.9080111988       -3.2217604455       -0.5726746023
 H          1.5700253829       -3.9536006180       -0.6889706546
 H         -0.9706053760       -2.9236154673        1.4353377202
 C         -0.9456107550       -3.8621686399       -0.4861731823
 C         -0.8006998482       -5.2615680347        0.0302543906
 C         -2.1643770533       -4.6882591062       -0.2084021232
 H         -2.7411488294       -5.0545782177       -1.0443745614
 H         -2.7638923899       -4.4156821506        0.6480536550
 H         -0.4431060299       -6.0263043182       -0.6425379966
 H         -0.4757443222       -5.3862474781        1.0521276594
 H         -0.6991543114       -3.6687306758       -1.5240054435
