  62
        -98.94321025
 C          1.5141341530        1.5227952453        0.1462483581
 C          2.5156148010        0.9790633195        0.9896477845
 C          3.2504850780       -0.1745323380        0.4600497443
 C          2.9323443756       -0.6686083263       -0.7502852624
 C          3.6293137225       -1.8025838284       -1.4526537420
 C          3.1417346372       -3.1977991039       -1.0409142819
 C          3.5595401464       -3.6480659208        0.3590105518
 H          3.3357337273       -4.7139787369        0.4347243632
 H          4.6381920988       -3.5349692748        0.4721883059
 C          2.8399884359       -2.9099294369        1.4965810781
 H          1.9546008662       -2.4061091124        1.1008992318
 H          2.4924236510       -3.6318999226        2.2390331637
 C          3.7064721553       -1.8866436724        2.2310928808
 H          3.0918329391       -1.3955109487        2.9901805175
 H          4.5245314559       -2.3987005848        2.7427957775
 C          4.3016665967       -0.7989832246        1.3270891656
 H          5.1025904463       -1.2150456368        0.7160005119
 H          4.7187620645       -0.0147184848        1.9638582360
 H          2.0536782474       -3.2191082405       -1.1161258299
 H          3.5448345785       -3.9103969724       -1.7640661780
 H          4.7043329644       -1.7269498193       -1.2849304082
 H          3.4355862409       -1.6713831557       -2.5193289520
 O          1.9282926815       -0.1544154146       -1.5058834778
 C          1.1824721431        0.9386107338       -1.0781533416
 O          0.2838875823        1.2724836054       -1.8690461328
 O          2.7848890141        1.4399524930        2.1316947098
 C          0.7410286762        2.7261310632        0.6562209405
 C         -0.7383766427        2.4954953183        0.4820212511
 C         -1.5607487305        3.2989383720       -0.2952760560
 C         -2.9061358354        3.0012617766       -0.4309038328
 C         -3.4603815126        1.9059608770        0.2049773247
 C         -2.6451361497        1.0940617984        0.9841034847
 C         -1.2997965322        1.3957183147        1.1209871030
 H         -0.6648120015        0.7588298974        1.7256109709
 N         -3.1982418810       -0.0283805928        1.6375643346
 S         -3.8718752760       -1.2292161013        0.6849324190
 O         -4.9980210558       -0.6839733430       -0.0282445012
 O         -4.1545544339       -2.3184730717        1.5920886623
 C         -2.5927014809       -1.7127948320       -0.4590527032
 C         -2.3657419651       -0.9457942220       -1.5841021444
 C         -1.3440084965       -1.3093550793       -2.4464294888
 C         -0.5738343594       -2.4282993799       -2.1712600434
 C         -0.8153996175       -3.1894524815       -1.0373012039
 C         -1.8297131202       -2.8259452445       -0.1669976684
 H         -2.0537624180       -3.3909949124        0.7237910913
 H         -0.2200707884       -4.0645729717       -0.8273850324
 H          0.2204477934       -2.7042548864       -2.8475059141
 H         -1.1419233364       -0.7061403930       -3.3160821915
 H         -2.9819122082       -0.0818581130       -1.7716674989
 H         -2.5630949872       -0.4531445670        2.2988890624
 H         -4.5023422690        1.6528619267        0.0943063069
 H         -3.5325550036        3.6308185891       -1.0447024927
 H         -1.1447242655        4.1447187023       -0.8171070038
 H          0.9545715616        2.7478759582        1.7384033851
 C          1.2165227377        4.0594428691        0.0994207522
 C          2.6412410097        4.2527289000       -0.3238328708
 C          1.5485129277        4.2567644298       -1.3482108472
 H          1.2848843048        5.1973967993       -1.8095391318
 H          1.4520487860        3.4066825704       -2.0046514328
 H          3.1265755749        5.1863403716       -0.0817360030
 H          3.2974717482        3.3956015744       -0.2789451652
 H          0.7517450954        4.8975472679        0.6100160536
