  62
        -98.93310649
 C         -2.2342349017       -0.9045841249        0.6569133949
 C         -3.3785301450       -0.8475563813       -0.1743733947
 C         -4.3726667387        0.1929266246        0.1496290037
 C         -4.1524021254        1.0291758046        1.1770847999
 C         -5.0349908223        2.1351409605        1.7000486131
 C         -5.7324600373        3.0352700968        0.6711907396
 C         -4.9356567947        3.2872978485       -0.6171662572
 H         -4.8952120336        4.3619822863       -0.8045479889
 H         -3.9079007570        2.9399330166       -0.4956417453
 C         -5.5588341100        2.6190179984       -1.8451095214
 H         -5.1867492222        3.1183233407       -2.7429147238
 H         -6.6404599372        2.7668883284       -1.8129843222
 C         -5.2618216198        1.1282488735       -2.0001044381
 H         -4.2085235492        0.9854133583       -2.2561835237
 H         -5.8499275516        0.7535165506       -2.8411572010
 C         -5.5621255384        0.2631951613       -0.7651850818
 H         -6.4489524128        0.6139405963       -0.2435229046
 H         -5.7397725590       -0.7597874898       -1.1071375682
 H         -6.7010175895        2.6100865840        0.4121374376
 H         -5.9300200842        3.9861760405        1.1689886974
 H         -5.7896489473        1.6865002012        2.3527691340
 H         -4.3822420020        2.7405848308        2.3337490948
 O         -3.0313580941        0.9447728263        1.9502268176
 C         -2.0610150659       -0.0113496329        1.7174586987
 O         -1.1058883058        0.0281079880        2.5212904431
 O         -3.5944800241       -1.6237401418       -1.1414511936
 C         -1.1136941951       -1.9153092441        0.4672088456
 C         -0.1762435736       -1.4805179959       -0.6346037437
 C         -0.5831167127       -1.4366211744       -1.9642612562
 C          0.2970098963       -1.0294335038       -2.9497236929
 C          1.5926805958       -0.6622127502       -2.6325897286
 C          2.0115815757       -0.7091052325       -1.3077424883
 C          1.1255110583       -1.1163664904       -0.3201250632
 H          1.4540076976       -1.1283561897        0.7086950770
 N          3.3388350344       -0.3881262656       -0.9723629878
 S          3.6653250190        0.3698804180        0.4999788194
 O          3.6081878687       -0.6136372122        1.5517305041
 O          2.8294586038        1.5399590238        0.6550219927
 C          5.3615067805        0.8483389219        0.2259209064
 C          5.6603465468        2.1556988687       -0.1069469901
 C          6.9816230519        2.5019820923       -0.3440662175
 C          7.9754316269        1.5397732804       -0.2477379498
 C          7.6601315502        0.2313519732        0.0882642666
 C          6.3417026639       -0.1210378207        0.3280918175
 H          6.0496262957       -1.1216161463        0.6008503096
 H          8.4357001234       -0.5134557965        0.1649490553
 H          9.0025197966        1.8118721865       -0.4329261200
 H          7.2297916865        3.5189064790       -0.6020638929
 H          4.8552556049        2.8707861891       -0.1626988356
 H          3.8270306820        0.0718018394       -1.7294595756
 H          2.2772645235       -0.3440600963       -3.4043461727
 H         -0.0312547537       -0.9929485549       -3.9776095446
 H         -1.5983261862       -1.7048389519       -2.2119835797
 H         -0.5438527063       -1.9005672969        1.4069685459
 C         -1.6112981041       -3.3288190130        0.2333146523
 C         -0.6808938481       -4.4719891775        0.4994856419
 C         -1.8462541073       -4.2255201742        1.4092889180
 H         -2.6817613933       -4.9084909460        1.3770853397
 H         -1.6496781315       -3.8218125074        2.3924199025
 H         -0.7138416056       -5.3269304615       -0.1580478230
 H          0.3070723330       -4.2351507678        0.8663228399
 H         -2.2934134997       -3.4145026746       -0.6015201412
