  62
        -98.94162126
 C          2.1228848607        0.8309136139        0.2853136631
 C          2.9768073369        0.2107180249        1.2324732459
 C          3.7542653334       -0.9395760065        0.7535185642
 C          3.5676970131       -1.3783198939       -0.5043637287
 C          4.3291551375       -2.5033526505       -1.1419462780
 C          5.5840161832       -1.9868277787       -1.8600402799
 C          6.4414681329       -1.0493683905       -1.0095862476
 H          7.3123314634       -0.7735493718       -1.6080171825
 H          5.8814984659       -0.1313984163       -0.8164982583
 C          6.9068666650       -1.6491871826        0.3246822629
 H          6.8137584192       -2.7353796511        0.2947374056
 H          7.9651894147       -1.4180262873        0.4621086084
 C          6.1707089082       -1.1115976049        1.5532857547
 H          6.1830502251       -0.0187550143        1.5387520382
 H          6.7166409264       -1.4326632732        2.4442730350
 C          4.7176329148       -1.5751960299        1.7160943063
 H          4.6685369591       -2.6639648210        1.6478067875
 H          4.3829827508       -1.2778323345        2.7143832567
 H          6.1804780346       -2.8460063217       -2.1721106186
 H          5.2711383128       -1.4465773690       -2.7566084083
 H          4.6066544177       -3.2267044466       -0.3774388591
 H          3.6775174441       -2.9899576022       -1.8698919595
 O          2.6816351954       -0.8095698407       -1.3599694763
 C          1.9413983608        0.3106127851       -0.9974996310
 O          1.1790338002        0.7190766078       -1.8921038007
 H         -0.2459213574        0.0354434157        1.4466536097
 C         -0.7893846917        0.7500165032        0.8391612411
 C         -0.1253197403        1.8775676019        0.3705392865
 C         -0.8278401758        2.7779245515       -0.4182328005
 C         -2.1565773201        2.5462526391       -0.7293950981
 C         -2.8125129562        1.4231788514       -0.2610942938
 C         -2.1173826601        0.5119360797        0.5234667229
 N         -2.7752711915       -0.6308056925        1.0130020081
 S         -3.6562565594       -1.5699038234       -0.0659164551
 O         -3.6837496843       -2.8901095138        0.5271747521
 O         -3.1350824078       -1.4798794167       -1.4098227625
 C         -5.2921457203       -0.8699909001        0.0089053182
 C         -5.9146563281       -0.8009691849        1.2399537763
 C         -7.1884430464       -0.2609019436        1.3160321200
 C         -7.8156647691        0.1958102765        0.1663081065
 C         -7.1791415175        0.1152314843       -1.0627543156
 C         -5.9043659474       -0.4234299546       -1.1456570184
 H         -5.3678964156       -0.5020466404       -2.0780972342
 H         -7.6684293868        0.4695069662       -1.9558283214
 H         -8.8068518106        0.6164894221        0.2282411662
 H         -7.6869852257       -0.1974142562        2.2698001024
 H         -5.3937611034       -1.1706423432        2.1073000612
 H         -2.1890226573       -1.2169046471        1.5899342121
 H         -3.8447527334        1.2371089381       -0.5083388534
 H         -2.6886700645        3.2503763117       -1.3507927017
 H         -0.3290937760        3.6476737101       -0.8125894907
 C          1.3267815725        2.0398102463        0.7444818544
 H          1.3951101291        2.0042156441        1.8452030844
 C          1.9180781171        3.3761216829        0.3215654022
 C          3.3848972070        3.5192488839        0.0490916985
 C          2.3997606011        3.6375310146       -1.0729230148
 H          2.2266880281        4.6149435915       -1.4992528314
 H          2.3272742295        2.8314903709       -1.7859438679
 H          3.8869370780        4.4110498467        0.3930571374
 H          3.9930974919        2.6277392404        0.1028816629
 H          1.4445846646        4.2070073645        0.8354420412
 O          3.0785961399        0.5990594255        2.4273121156
