  62
        -98.93946534
 C          2.4166901769        0.9392602882       -0.6386035529
 C          3.6250236434        0.8463312581        0.1034453587
 C          4.4320362850       -0.3583205933       -0.1105393982
 C          4.0197902322       -1.2857528885       -0.9931388601
 C          4.7389057182       -2.5600467538       -1.3428201365
 C          4.4661094392       -3.7157469195       -0.3702921272
 C          5.1319972610       -3.5835026117        0.9999975162
 H          5.0419522256       -4.5527219103        1.4944691058
 H          6.1957465709       -3.3831210666        0.8682241850
 C          4.5120651760       -2.5095667448        1.9051658514
 H          4.3699083386       -2.9166959705        2.9088188933
 H          3.5227147803       -2.2398594809        1.5279146726
 C          5.3494405236       -1.2384074599        2.0475772297
 H          4.7980524326       -0.5345498963        2.6764040476
 H          6.2902923233       -1.4734691363        2.5501267352
 C          5.6668454356       -0.5387817266        0.7194923797
 H          6.0664604432        0.4537548394        0.9413811223
 H          6.4176827373       -1.1029919473        0.1666432619
 H          4.8322245165       -4.6308885408       -0.8412820418
 H          3.3859294477       -3.8168897194       -0.2418850478
 H          4.3876087493       -2.8536353364       -2.3343085605
 H          5.8116925919       -2.3724685369       -1.3954989765
 O          2.8706493606       -1.1513620667       -1.7031859751
 C          2.0315666442       -0.0589841714       -1.5332221572
 O          1.0043735511       -0.1168730552       -2.2402080750
 H         -0.5512713766        0.5490886408       -0.8158424959
 C         -0.6039722992        1.0360776766        0.1469203152
 C          0.4160963689        1.8973846410        0.5258183952
 C          0.3424177851        2.5047642740        1.7736790883
 C         -0.7260426156        2.2538530873        2.6170851367
 C         -1.7371470306        1.3890998422        2.2388462119
 C         -1.6702017157        0.7727293504        0.9956215836
 N         -2.6715105569       -0.1426226808        0.6044153618
 S         -4.2705539963        0.3992088695        0.6629861499
 O         -4.4280018315        1.5942695779       -0.1379202728
 O         -4.6629822783        0.5140155245        2.0448603035
 C         -5.1168444455       -0.9733926083       -0.0927634722
 C         -5.5401307923       -0.8773018697       -1.4041770192
 C         -6.1795483373       -1.9626361451       -1.9828566635
 C         -6.3795319052       -3.1194728502       -1.2450620092
 C         -5.9472933452       -3.2009372509        0.0705505795
 C         -5.3093222647       -2.1190315843        0.6556279681
 H         -4.9647321554       -2.1336788355        1.6763086937
 H         -6.1062173625       -4.1020116741        0.6406904251
 H         -6.8773792997       -3.9623206904       -1.6980099335
 H         -6.5182081149       -1.9014801848       -3.0046418106
 H         -5.3682797851        0.0437428713       -1.9380518040
 H         -2.4797942103       -0.5079267087       -0.3201401779
 H         -2.5777461617        1.1919900754        2.8837876641
 H         -0.7718516752        2.7349366582        3.5825801387
 H          1.1348927503        3.1702787104        2.0843351977
 C          1.5725979214        2.1809203859       -0.4042083103
 H          2.2427547546        2.8860763958        0.1058427591
 C          1.0852984759        2.8286434714       -1.6858218303
 C          0.6942817950        4.2746608179       -1.6638876125
 C          1.9459003467        3.8467472855       -2.3686848578
 H          1.9642171425        3.8637436631       -3.4479996462
 H          2.8953061944        4.0858763675       -1.9121525070
 H          0.7950896911        4.8049522915       -0.7289595544
 H         -0.1513249094        4.5884605811       -2.2565388540
 H          0.5117853968        2.1620631552       -2.3165853311
 O          4.0143288034        1.7385934826        0.9028373349
