  62
        -98.94073190
 C         -2.4251332398       -1.0970034144       -0.2269294553
 C         -2.0377273222        0.2644357912       -0.2733737332
 C         -2.9349235755        1.2053523945        0.4106743886
 C         -4.0234900358        0.7495886358        1.0557560534
 C         -5.0176725346        1.5825758476        1.8185171894
 C         -6.1023628996        2.2218785135        0.9405113694
 C         -5.6310224149        3.3849911670        0.0667373726
 H         -6.5253109267        3.8752292838       -0.3230097078
 H         -5.1047236524        4.1122660429        0.6857340227
 C         -4.7414919310        2.9704773077       -1.1136147932
 H         -5.0774459482        3.4804065421       -2.0192504734
 H         -4.8487012651        1.8979760584       -1.2912067030
 C         -3.2586007351        3.2955151723       -0.9341769836
 H         -2.7184825326        2.9267282988       -1.8096704072
 H         -3.1236269115        4.3783016852       -0.8858300930
 C         -2.6226912379        2.6684033365        0.3134598368
 H         -1.5371405822        2.7707839540        0.2378334603
 H         -2.9590904955        3.1890691962        1.2098603146
 H         -6.5422703018        1.4463671959        0.3093347998
 H         -6.8847206521        2.5905864863        1.6078374836
 H         -4.4932617770        2.3593720870        2.3759737034
 H         -5.5022892474        0.9113405247        2.5308558584
 O         -4.3427394002       -0.5711653340        1.1056533190
 C         -3.5621820180       -1.5187786324        0.4665885058
 O         -3.9781868492       -2.6887277294        0.5865676256
 O         -1.0049472804        0.6880378470       -0.8557273057
 C         -1.5830697820       -2.1816568202       -0.8817935223
 C         -0.2922936421       -2.2868593223       -0.1064714833
 C         -0.2779900903       -3.0018424132        1.0880286266
 C          0.8618059729       -3.0490029337        1.8684642340
 C          2.0081824518       -2.3772352524        1.4799203344
 C          1.9996469235       -1.6543604498        0.2953589652
 C          0.8595193426       -1.6238468017       -0.4976828182
 H          0.8612576716       -1.0445891673       -1.4070746464
 N          3.1574592210       -0.9586223665       -0.1071915775
 S          3.9130911109       -0.0223195065        1.0809116351
 O          4.7697265199       -0.8836576759        1.8586613238
 O          2.9315390392        0.7295864540        1.8309730842
 C          4.9033250834        1.0673904510        0.0772425720
 C          4.3328038580        2.2326084786       -0.3997013749
 C          5.0902167812        3.0683040007       -1.2051102517
 C          6.3965656694        2.7248500211       -1.5204538057
 C          6.9544677328        1.5517508838       -1.0348731531
 C          6.2028869112        0.7116603496       -0.2284616276
 H          6.5943412331       -0.2062456847        0.1777793227
 H          7.9706331996        1.2896344858       -1.2814023277
 H          6.9830689797        3.3777683061       -2.1473546450
 H          4.6585871072        3.9813115453       -1.5827923897
 H          3.3159139544        2.4646677792       -0.1234842186
 H          2.9760028432       -0.3945973134       -0.9274672046
 H          2.8981919474       -2.3859710353        2.0885435757
 H          0.8580197550       -3.6071727061        2.7929488088
 H         -1.1814756513       -3.5046251021        1.4055515932
 H         -2.1391000574       -3.1184962075       -0.7453021996
 C         -1.3961362846       -1.9368221101       -2.3642438683
 C         -0.8930906432       -3.0498253352       -3.2321215753
 C         -2.3197249198       -2.6036342564       -3.3369327405
 H         -2.6261623077       -2.0544826131       -4.2146474851
 H         -3.0888433349       -3.2470744279       -2.9350409649
 H         -0.2190365242       -2.8108829065       -4.0403197503
 H         -0.6919497737       -3.9978809584       -2.7566267930
 H         -1.0812064107       -0.9276300604       -2.5975706044
