  62
        -98.94533200
 C         -1.5651586869       -0.9958654400        0.3119177352
 C         -2.8858404000       -1.1499215848        0.8019392307
 C         -3.9629385982       -0.7922451048       -0.1266985931
 C         -3.6596001317       -0.3511878584       -1.3610087551
 C         -4.6460172155        0.0403817827       -2.4277105696
 C         -5.1573779515        1.4822783440       -2.3044258765
 C         -6.1338967325        1.7303570555       -1.1539380739
 H         -6.9412992855        0.9989050160       -1.2003716379
 H         -6.5764649217        2.7151063484       -1.3167287188
 C         -5.4912008739        1.7032280868        0.2399232000
 H         -5.8461345766        2.5575033896        0.8209505852
 H         -4.4080308292        1.8113289867        0.1437972017
 C         -5.7942349551        0.4447122166        1.0532540764
 H         -6.8637665810        0.3973451364        1.2696138520
 H         -5.2610980153        0.5154668504        2.0047261033
 C         -5.3749572547       -0.8641619396        0.3713132781
 H         -6.0558564884       -1.0969141724       -0.4469518494
 H         -5.4263736586       -1.6673125222        1.1104214919
 H         -5.6624029441        1.7301959032       -3.2409716149
 H         -4.2980291693        2.1498224526       -2.2043109393
 H         -5.4908681117       -0.6488130320       -2.4172632290
 H         -4.1265499294       -0.0595223098       -3.3831759705
 O         -2.3790615193       -0.2266393775       -1.7988627565
 C         -1.3012454687       -0.5220590008       -0.9736764439
 O         -0.1914161451       -0.3394331442       -1.5079766837
 O         -3.1510913728       -1.5691509718        1.9602250632
 C         -0.4107945572       -1.3103782897        1.2495579092
 C          0.2478793984       -0.0102805045        1.6418149990
 C         -0.4593009444        0.8876052826        2.4388741178
 C          0.0972637889        2.0985838908        2.8005287410
 C          1.3635488610        2.4476488832        2.3609597590
 C          2.0740337898        1.5637724725        1.5601747346
 C          1.5203427384        0.3366609910        1.2194121695
 H          2.0882925633       -0.3422350083        0.6094806462
 N          3.3685304200        1.8718673811        1.1022796295
 S          3.6553095085        1.7856371263       -0.5551363604
 O          4.8583381038        2.5716331565       -0.7439978605
 O          2.5005593909        2.2137931464       -1.3089433298
 C          4.0404392981        0.0760683560       -0.8618986120
 C          3.2001829492       -0.6960344318       -1.6397202766
 C          3.5322365978       -2.0248744184       -1.8571239243
 C          4.6862448115       -2.5527091498       -1.2984722444
 C          5.5190752175       -1.7607369021       -0.5218713834
 C          5.1964363632       -0.4316671402       -0.3014859662
 H          5.8172753424        0.2216038121        0.2885756845
 H          6.4144148356       -2.1757135574       -0.0878834926
 H          4.9350678253       -3.5884770828       -1.4691115440
 H          2.8800034671       -2.6406349328       -2.4564740781
 H          2.2923735875       -0.2611864991       -2.0299915857
 H          3.7332523836        2.7420832125        1.4651782589
 H          1.7964571389        3.3985928239        2.6339261083
 H         -0.4598423958        2.7825739098        3.4232689614
 H         -1.4534794246        0.6197520996        2.7695158234
 H         -0.8787323515       -1.7358733818        2.1488600769
 C          0.5413771100       -2.3283497890        0.6608886760
 C          1.5216407256       -3.0291091227        1.5521204601
 C          0.3586359011       -3.7805672625        0.9793764691
 H          0.5435076421       -4.5045756883        0.2003653272
 H         -0.4525986243       -4.0491130753        1.6402065463
 H          2.5089743552       -3.2342554303        1.1669509353
 H          1.4994518776       -2.7863282988        2.6036106213
 H          0.8612223615       -2.0782977232       -0.3430995080
