  62
        -98.93745147
 C          1.7493216499        1.2730999597        0.4620945980
 C          1.8687852193        0.3095298591       -0.5668413916
 C          3.2401903591        0.0030573687       -1.0120615120
 C          4.2777644994        0.6535905989       -0.4583652228
 C          5.7436057892        0.5328427185       -0.7919781934
 C          6.3116883490       -0.8815125017       -0.9787538629
 C          5.6408155392       -1.9707485212       -0.1292228121
 H          6.4133051793       -2.5410943810        0.3900645779
 H          5.0049875296       -1.5158153807        0.6322636780
 C          4.8143057987       -2.9537362915       -0.9622946012
 H          5.3775744483       -3.2088574320       -1.8626878913
 H          4.6808366088       -3.8744607612       -0.3891193007
 C          3.4220182986       -2.4683158215       -1.3654451708
 H          2.7702827090       -2.4342263510       -0.4874222506
 H          2.9929398782       -3.2059415018       -2.0483657303
 C          3.3700196185       -1.0861798818       -2.0371578815
 H          4.2284847382       -0.9309721623       -2.6863577720
 H          2.4604009782       -1.0433390520       -2.6424455011
 H          6.2479506885       -1.1640855322       -2.0286795727
 H          7.3732497991       -0.8304166817       -0.7312198534
 H          5.9360286989        1.1173964880       -1.6961149038
 H          6.2632621297        1.0304525588        0.0301709961
 O          4.1125079799        1.5911523694        0.5172978468
 C          2.8603731702        1.9087978798        1.0135656472
 O          2.8682124407        2.7570875203        1.9285836667
 H         -2.1016963102        0.5211487602        0.5388030700
 C         -1.5264147599       -0.0311428395        1.2606203601
 C         -0.2569311597        0.3966011505        1.6129642493
 C          0.4504016306       -0.3323559691        2.5664824994
 C         -0.0980162293       -1.4609614387        3.1429013202
 C         -1.3597734995       -1.8948269987        2.7722546710
 C         -2.0740235099       -1.1771902391        1.8227931709
 N         -3.3689977001       -1.5695556592        1.4353872617
 S         -3.6620532708       -1.8284812300       -0.2010867881
 O         -4.8842780709       -2.6058112898       -0.2218211071
 O         -2.5232124912       -2.4284744605       -0.8548508483
 C         -4.0010609909       -0.2147553903       -0.8685249987
 C         -3.1842857613        0.3045181891       -1.8535808494
 C         -3.4798498413        1.5549887289       -2.3739224099
 C         -4.5780860810        2.2584773493       -1.9020407598
 C         -5.3876833107        1.7213428699       -0.9120572191
 C         -5.1005024306        0.4705882401       -0.3898140386
 H         -5.7071298303        0.0129006106        0.3735432419
 H         -6.2386711804        2.2736033802       -0.5474636691
 H         -4.8018360311        3.2324381891       -2.3086361502
 H         -2.8478835516        1.9759397584       -3.1399742304
 H         -2.3281070415       -0.2681030512       -2.1758616295
 H         -3.7363351099       -2.3449471288        1.9699500222
 H         -1.7860313695       -2.7831510385        3.2142242016
 H          0.4627304909       -2.0143276784        3.8815057902
 H          1.4400025108        0.0018418909        2.8492297688
 C          0.3824086202        1.6287191401        1.0190662884
 H          0.5669507306        2.3407666105        1.8368084679
 C         -0.4655115202        2.3061770497       -0.0363893216
 C         -1.5583301199        3.2471276601        0.3704416484
 C         -0.3074070801        3.7786313696       -0.2607065924
 H         -0.3564454405        4.1532504590       -1.2718600026
 H          0.4020346402        4.3021487298        0.3638789370
 H         -1.7016347994        3.4154742706        1.4269655584
 H         -2.4702904302        3.2571936899       -0.2071529612
 H         -0.6235850907        1.6821327293       -0.9081864712
 O          0.8822781290       -0.2617207610       -1.0999958209
