  62
        -98.94589663
 C          1.5726259565        1.4717101533       -0.2046492048
 C          1.5310130864        0.0839642172       -0.4833664439
 C          2.8358286850       -0.5677804708       -0.6683920070
 C          3.9591644444        0.1668926402       -0.5763410433
 C          5.3517500901       -0.3819403245       -0.6868554095
 C          5.8995425653       -0.7874508414        0.6887930238
 C          4.9419532821       -1.6566579770        1.5041563138
 H          5.4461536781       -1.9033983848        2.4411487290
 H          4.0575133153       -1.0689834932        1.7607113004
 C          4.5037835610       -2.9499045803        0.8027304813
 H          4.5651756697       -3.7730071754        1.5178366359
 H          5.1902454369       -3.1786794370       -0.0133042328
 C          3.0701298147       -2.9277566103        0.2690248591
 H          2.7959504382       -3.9494812808       -0.0060496582
 H          2.3887755149       -2.6063351210        1.0607127822
 C          2.8302152070       -2.0418743650       -0.9596855468
 H          3.5568615136       -2.2852063252       -1.7374208023
 H          1.8277528923       -2.2633013438       -1.3370751641
 H          6.8416425506       -1.3190913654        0.5424102180
 H          6.1078430209        0.1205593318        1.2596668425
 H          5.9946804673        0.3916013376       -1.1102282870
 H          5.3458426240       -1.2411660168       -1.3546722332
 O          3.9560927411        1.5007154563       -0.3182537103
 C          2.7670186619        2.1840677174       -0.1159469712
 O          2.9050967959        3.3989109134        0.1351381553
 O          0.4646921440       -0.5750127057       -0.5713908457
 C          0.2703060550        2.2243402737        0.0001822584
 C         -0.5445508264        1.5368338160        1.0676994972
 C          0.0500537986        1.2691746915        2.2988283701
 C         -0.6477268602        0.6116774322        3.2925476540
 C         -1.9497477973        0.1938563647        3.0766625760
 C         -2.5558669653        0.4675182047        1.8572190023
 C         -1.8594055101        1.1497073920        0.8683360790
 H         -2.3624954621        1.3663392798       -0.0580641531
 N         -3.8765731674        0.0702581168        1.6121572590
 S         -4.3812137495       -0.3366032613        0.0739965394
 O         -4.5909672255        0.8559515265       -0.7093785838
 O         -5.5595916700       -1.1488761118        0.2978753296
 C         -3.0994464010       -1.3386283988       -0.6557727930
 C         -2.6557269353       -2.4501025279        0.0309364122
 C         -1.6899852485       -3.2538468112       -0.5501114019
 C         -1.1910585986       -2.9379916258       -1.8032366316
 C         -1.6475799031       -1.8198660063       -2.4804640972
 C         -2.6100711877       -1.0099119017       -1.9021182902
 H         -2.9868590714       -0.1255401080       -2.3922244086
 H         -1.2488583261       -1.5696910014       -3.4511226392
 H         -0.4361260385       -3.5639055383       -2.2533152270
 H         -1.3237390635       -4.1199548151       -0.0223078724
 H         -3.0659250123       -2.6754261887        1.0022627874
 H         -4.2868327497       -0.5241504356        2.3165515258
 H         -2.4920780982       -0.3347110059        3.8456392326
 H         -0.1716803736        0.4100610044        4.2405157731
 H          1.0740344527        1.5790530834        2.4607775280
 H          0.5425998234        3.2277630799        0.3583161895
 C         -0.4592081654        2.3552848516       -1.3205055396
 C         -1.4105386444        3.4896326385       -1.5500366685
 C         -0.0888846586        3.4642363884       -2.2565272908
 H         -0.0728818602        3.2613788918       -3.3168743504
 H          0.6794805891        4.1511378030       -1.9321482236
 H         -2.3089633183        3.3038397327       -2.1199183794
 H         -1.5427397785        4.2003727319       -0.7481141512
 H         -0.6984750460        1.3919972057       -1.7574975304
