  62
        -98.94434857
 C         -2.2876422295       -1.1013716525        0.2554007336
 C         -2.3862914085        0.0806079799       -0.5181444460
 C         -3.3166354251        1.0992256511       -0.0121380571
 C         -3.9761547177        0.8983543656        1.1423693663
 C         -4.9332467628        1.8560340606        1.7983971683
 C         -6.3656892885        1.7801075797        1.2521850683
 C         -6.5610953966        2.3670684991       -0.1462721149
 H         -7.6371999375        2.4466361627       -0.3124990625
 H         -6.1517170498        3.3773683003       -0.1753811921
 C         -5.9482462252        1.5282813653       -1.2763858836
 H         -5.7456044290        0.5186474273       -0.9119537729
 H         -6.6680652993        1.4356485974       -2.0926700810
 C         -4.6634077317        2.1062415943       -1.8699183622
 H         -4.8800550668        3.0603812990       -2.3555260985
 H         -4.2971722563        1.4153433388       -2.6335275499
 C         -3.5384961913        2.3231034044       -0.8491683364
 H         -2.6126961250        2.5269830064       -1.3933612180
 H         -3.7645021487        3.1809668693       -0.2160344384
 H         -6.6860274494        0.7357789047        1.2573000378
 H         -7.0074095987        2.3282413923        1.9457342696
 H         -4.9545848858        1.5949122614        2.8586411610
 H         -4.5573853707        2.8748926573        1.6996738659
 O         -3.8249014233       -0.2339941458        1.8784652919
 C         -2.9984365385       -1.2574615753        1.4500979121
 O         -2.9792478960       -2.2467841635        2.2091373107
 O         -1.7461735375        0.2970133340       -1.5820140289
 C         -1.3831194051       -2.2642017408       -0.1287001038
 C          0.0470876430       -1.9033804436        0.1943335232
 C          0.6283739002       -2.3462625104        1.3778931360
 C          1.9191417899       -1.9766518246        1.7104051669
 C          2.6539844035       -1.1539511440        0.8747808686
 C          2.0760403833       -0.6930627714       -0.3002791667
 C          0.7874413970       -1.0795279321       -0.6407113975
 H          0.3376301545       -0.6957673530       -1.5434149338
 N          2.8073203568        0.1582819529       -1.1491242625
 S          3.5139301903        1.5162124714       -0.4572056110
 O          2.7877240912        1.9605186007        0.7107512126
 O          3.6449223837        2.4710874472       -1.5363382832
 C          5.1380647669        0.9519941755        0.0094872611
 C          5.5799034560        1.1196466944        1.3071778050
 C          6.8513230235        0.6816142145        1.6443421286
 C          7.6542197688        0.0876491318        0.6827428185
 C          7.1966501746       -0.0708357846       -0.6170345550
 C          5.9274595279        0.3661301732       -0.9608804271
 H          5.5353573624        0.2652576788       -1.9590260803
 H          7.8239256916       -0.5331180566       -1.3620723020
 H          8.6423883178       -0.2536152507        0.9480444668
 H          7.2084511621        0.8046076456        2.6542038197
 H          4.9177335972        1.5810426726        2.0226037014
 H          2.2956413617        0.4180273113       -1.9810927603
 H          3.6571624292       -0.8555569837        1.1322447909
 H          2.3576088532       -2.3302553690        2.6311748674
 H          0.0486045847       -2.9683305930        2.0450349590
 H         -1.6747244712       -3.0940576741        0.5283696877
 C         -1.5704181801       -2.7026456477       -1.5670145766
 C         -1.0705617490       -4.0518336010       -1.9843248673
 C         -2.5435728928       -3.7989125072       -1.8750640556
 H         -3.1257741320       -3.7302983138       -2.7818436537
 H         -3.0781173809       -4.2407234687       -1.0465602494
 H         -0.6388403187       -4.1601941195       -2.9673706309
 H         -0.6051306786       -4.6659152474       -1.2282958563
 H         -1.4992359586       -1.8938439851       -2.2819651231
