  62
        -98.94108463
 C          2.0957753107        0.7875234796       -0.4306846206
 C          3.2251655508        1.2833234005        0.2717882187
 C          4.4863922207        0.5643405102        0.0646551395
 C          4.5164277806       -0.5058895308       -0.7493691891
 C          5.7276250406       -1.3363558713       -1.0767502182
 C          6.0357587807       -2.4240361800       -0.0385305669
 C          6.6026561108       -1.9159867583        1.2878246924
 H          6.9749193908       -2.7867865276        1.8311975935
 H          7.4559094608       -1.2658959985        1.0916573415
 C          5.5851503709       -1.1810669071        2.1716615916
 H          5.6673423610       -1.5426331858        3.1991478921
 H          4.5730970109       -1.4133182876        1.8316581220
 C          5.7590793009        0.3372532329        2.2103080997
 H          6.7174703610        0.5845613735        2.6721450493
 H          4.9662452410        0.7574300837        2.8342553092
 C          5.6896497008        1.0159565612        0.8360443088
 H          5.6014461808        2.0941774014        0.9905289174
 H          6.6002394808        0.8166597504        0.2713917790
 H          5.1236004007       -2.9952812197        0.1495681040
 H          6.7660875906       -3.1028303405       -0.4850322961
 H          5.5225125405       -1.8221911025       -2.0332186176
 H          6.5962446406       -0.6879216314       -1.1954421891
 O          3.4127488106       -0.9572069416       -1.3992735885
 C          2.1727372406       -0.3450536614       -1.2433393591
 O          1.2602410405       -0.9033714322       -1.8794893183
 O          3.1793922908        2.2815398415        1.0383058174
 C          0.7723025307        1.4983261599       -0.2048914613
 C         -0.2968614193        0.4949769304        0.1426478901
 C         -0.2607944692       -0.1218968980        1.3900624208
 C         -1.2027484391       -1.0712322776        1.7380118921
 C         -2.2027343192       -1.4250765487        0.8495326727
 C         -2.2489034893       -0.8136577503       -0.3961203581
 C         -1.3082431694        0.1492482593       -0.7391881994
 H         -1.3415993694        0.5987295380       -1.7192048800
 N         -3.2601818894       -1.1692598914       -1.3017244575
 S         -4.8221737094       -1.3369266107       -0.7364961572
 O         -4.9815210393       -2.6212389499       -0.1005908455
 O         -5.6688483895       -1.0915395921       -1.8829766474
 C         -5.0170870092       -0.0378563391        0.4715782512
 C         -4.8895345293        1.2693186903        0.0446065295
 C         -5.0023580492        2.2918079115        0.9721069882
 C         -5.2381712490        1.9914756032        2.3052401386
 C         -5.3683734490        0.6746732837        2.7173849303
 C         -5.2555526891       -0.3523072175        1.7936246516
 H         -5.3496412491       -1.3893658371        2.0717180329
 H         -5.5541463489        0.4440942650        3.7540182606
 H         -5.3217414590        2.7895977041        3.0259273976
 H         -4.9032866792        3.3172396011        0.6540094969
 H         -4.7138158394        1.4682335090       -1.0003351008
 H         -3.2214792995       -0.6808311625       -2.1832748582
 H         -2.9331784292       -2.1790625284        1.0940591637
 H         -1.1571575290       -1.5453492364        2.7067016427
 H          0.5268852709        0.1452369928        2.0813130604
 H          0.9532555208        2.1230075410        0.6852312679
 C          0.3646774006        2.4506745485       -1.3187927825
 C          1.3990714006        3.2270040675       -2.0760891036
 C          0.6028075705        2.1648486667       -2.7701994522
 H         -0.1494782596        2.4745633958       -3.4816730225
 H          1.0908561904        1.2388018863       -3.0302305610
 H          1.1979283906        4.2609339572       -2.3127288449
 H          2.4363096206        3.0229940278       -1.8535131434
 H         -0.5508146993        2.9813670488       -1.0745618431
