  62
        -98.94438409
 C         -1.8493445308        1.0536802874        0.2056287025
 C         -2.3750058137       -0.0846858471        0.8625777636
 C         -3.8389449655       -0.2190457770        0.8320972075
 C         -4.5769910774        0.7287639678        0.2258397404
 C         -6.0694133012        0.6865274732        0.0734267577
 C         -6.4733198764        0.0043826713       -1.2412938690
 C         -5.7760037382       -1.3345150604       -1.4825699590
 H         -6.1595997066       -1.7360194396       -2.4230236370
 H         -4.7062088926       -1.1608894275       -1.6195564134
 C         -5.9800391825       -2.3672048833       -0.3653410352
 H         -6.8366677511       -2.0854336137        0.2480653063
 H         -6.2103673778       -3.3333774332       -0.8192700112
 C         -4.7606705714       -2.5777913497        0.5344213109
 H         -3.8777486925       -2.7691484800       -0.0810229688
 H         -4.9356452305       -3.4705190247        1.1408951835
 C         -4.4349199158       -1.4280817484        1.4962137565
 H         -5.3278258100       -1.1578750445        2.0637171145
 H         -3.6766409054       -1.7874919911        2.1982845532
 H         -7.5548840438       -0.1424498873       -1.2358214990
 H         -6.2251716530        0.6733689518       -2.0685012320
 H         -6.5009402141        0.1544283469        0.9188669018
 H         -6.4443251007        1.7113660112        0.0708372071
 O         -4.0359114014        1.8220935082       -0.3699559654
 C         -2.6633036373        2.0057775630       -0.4075064731
 O         -2.2965458481        3.0359480327       -1.0080087089
 H          1.8357748459       -0.1757269536        1.0784017672
 C          1.4318562803       -0.5381509177        0.1482614681
 C          0.3358648958        0.0751398954       -0.4370385025
 C         -0.1523923440       -0.4370554590       -1.6374412372
 C          0.4197786271       -1.5517025614       -2.2167539255
 C          1.5040468075       -2.1722057178       -1.6205048902
 C          2.0088305697       -1.6613353765       -0.4320101889
 N          3.1056083829       -2.2701539900        0.1951134447
 S          4.2836637612       -1.3300300190        0.9102182944
 O          5.4588891329       -2.1748390756        0.9257019220
 O          3.8423729277       -0.8471369447        2.1938543716
 C          4.5315695782        0.0379246391       -0.2090209085
 C          4.4130038248        1.3311963278        0.2547648349
 C          4.6018056907        2.3820523911       -0.6290018987
 C          4.9014681331        2.1214765315       -1.9567370536
 C          5.0219556625        0.8155315405       -2.4073248056
 C          4.8376955266       -0.2380606644       -1.5273695714
 H          4.9359099033       -1.2628241312       -1.8462959810
 H          5.2580202870        0.6166122084       -3.4402678151
 H          5.0434173936        2.9408521813       -2.6436745079
 H          4.5122893007        3.3980353205       -0.2783322563
 H          4.1729883407        1.4895858650        1.2933697039
 H          3.4991701159       -3.0556747516       -0.3010953169
 H          1.9467755995       -3.0506285727       -2.0647286485
 H          0.0209910368       -1.9422824933       -3.1408836277
 H         -1.0010289357        0.0469473645       -2.1021202325
 C         -0.3476450654        1.2766082908        0.1678656893
 H         -0.1837689355        2.1373565948       -0.4970101108
 C          0.1532313665        1.6295351600        1.5526705991
 C          1.3403950221        2.5266533395        1.7233745988
 C         -0.0322604816        3.0298057960        2.0523330433
 H         -0.2960898117        3.1770182688        3.0889445661
 H         -0.4947123558        3.7370764258        1.3790510430
 H          2.0207027730        2.3253188413        2.5376452279
 H          1.8141827258        2.9003472866        0.8284255293
 H          0.0143780652        0.8238148214        2.2650422822
 O         -1.6625116451       -0.9456862957        1.4419484072
