  62
        -98.93631960
 C          1.7892797403        0.9182614065        0.7090600139
 C          2.1393640111       -0.2782841188        0.0401072803
 C          3.5797958972       -0.5614607305       -0.0531415657
 C          4.4645619759        0.2862447351        0.5018007357
 C          5.9611223584        0.1236754003        0.5488823044
 C          6.6947446555        0.1651331857       -0.8054729870
 C          6.9372408282       -1.2118924502       -1.4356996803
 H          7.9341171206       -1.2236659766       -1.8810473489
 H          6.9382898618       -1.9644247617       -0.6462142332
 C          5.9533074521       -1.6258770021       -2.5341552258
 H          6.2121540001       -1.1062051689       -3.4595317782
 H          6.0809228105       -2.6959228920       -2.7119128135
 C          4.4777035522       -1.3445798486       -2.2495002246
 H          3.8797806301       -1.8593694712       -3.0044395325
 H          4.2764627514       -0.2776989206       -2.3726232812
 C          4.0009116064       -1.7646798905       -0.8454178705
 H          3.1208062577       -2.4063021954       -0.9270896892
 H          4.7809015479       -2.3164780414       -0.3226643539
 H          7.6644262660        0.6317008603       -0.6249733417
 H          6.1496400351        0.8093925727       -1.4946911181
 H          6.1953595399       -0.8136175742        1.0586944785
 H          6.3219741629        0.9427403946        1.1742856026
 O          4.0816291314        1.4191194004        1.1526963523
 C          2.7462643836        1.7687536354        1.2620528228
 O          2.5415896753        2.8368166641        1.8736143067
 O          1.2964887332       -1.0759693062       -0.4478334631
 C          0.3303929303        1.3154249661        0.8418843140
 C         -0.4555358824        0.2177607574        1.5160836623
 C          0.0407391921       -0.3369908030        2.6932960755
 C         -0.6496957854       -1.3369276448        3.3489346488
 C         -1.8516464838       -1.8039243073        2.8465889209
 C         -2.3634763216       -1.2490915670        1.6802321631
 C         -1.6707430439       -0.2372373822        1.0281300773
 H         -2.0812633167        0.1729861281        0.1210044573
 N         -3.6049977314       -1.6672265824        1.1841021185
 S         -3.9438078732       -1.7010531701       -0.4519418521
 O         -5.1224285068       -2.5382443642       -0.5454505669
 O         -2.8118173613       -2.1169847980       -1.2447241529
 C         -4.4046129002       -0.0285940109       -0.8534001247
 C         -4.0211363534        0.4950928711       -2.0719642054
 C         -4.4248191829        1.7780460902       -2.4086380246
 C         -5.2005419829        2.5115898814       -1.5240946193
 C         -5.5764638046        1.9709896231       -0.3038091373
 C         -5.1814091154        0.6870669972        0.0361925247
 H         -5.4572050015        0.2352711746        0.9741264961
 H         -6.1772050944        2.5458164649        0.3823389540
 H         -5.5103690344        3.5105796407       -1.7873889204
 H         -4.1324277136        2.1988571967       -3.3578619951
 H         -3.4055700210       -0.1054389532       -2.7232462950
 H         -4.0186616571       -2.4503243460        1.6681185809
 H         -2.3892492369       -2.5910432943        3.3531392685
 H         -0.2476173818       -1.7620795426        4.2563823833
 H          0.9837827173        0.0234746862        3.0820749691
 H          0.3176043984        2.1959823452        1.5014131923
 C         -0.2273410356        1.7153032027       -0.5083952893
 C         -1.3090851948        2.7485163648       -0.5963847209
 C          0.0830460530        3.0812993641       -1.0397784324
 H          0.2778259259        3.1911509844       -2.0960028126
 H          0.6816561307        3.7289486467       -0.4155604136
 H         -2.0747219586        2.6319003977       -1.3482345246
 H         -1.6616224259        3.1793475352        0.3283499180
 H         -0.2405885880        0.8923663536       -1.2150385243
