  62
        -98.93797705
 C         -2.0369803605       -1.1629219769        0.7799936448
 C         -1.9320673534        0.2195575918        1.0843349328
 C         -3.0921713534        1.0520393098        0.7519155697
 C         -4.1852678963        0.4818452220        0.2141955125
 C         -5.4674743739        1.1842465919       -0.1421549736
 C         -5.4529845384        1.8539576809       -1.5229370667
 C         -4.5948412004        3.1156155848       -1.6231391818
 H         -4.8447262052        3.5995149089       -2.5694594666
 H         -4.8689735889        3.8045179676       -0.8235269312
 C         -3.0826501021        2.8545142720       -1.5862459111
 H         -2.8900878565        1.7988859844       -1.7925935003
 H         -2.5941199425        3.4273105379       -2.3779242415
 C         -2.4038576678        3.2322658547       -0.2696151940
 H         -1.3468912459        2.9650485795       -0.3494352353
 H         -2.4685938725        4.3124257426       -0.1208642453
 C         -2.9843699392        2.5315494918        0.9660517744
 H         -3.9585534422        2.9530470984        1.2129698243
 H         -2.3076055508        2.6969579131        1.8079463852
 H         -5.1154446298        1.1238958649       -2.2623947180
 H         -6.4840189027        2.1204994940       -1.7668080019
 H         -5.7015373517        1.9271613659        0.6209907576
 H         -6.2503152487        0.4226236641       -0.1378636946
 O         -4.2539244308       -0.8470730934       -0.0538234564
 C         -3.1749085025       -1.6989606817        0.1760309839
 O         -3.3831878261       -2.8684211875       -0.1926152366
 O         -0.9127789157        0.7290417351        1.6193766340
 C         -0.8123533292       -2.0028323782        1.0973940889
 C          0.2049965107       -1.8650572085       -0.0075437739
 C         -0.1740457894       -1.9598651163       -1.3425932249
 C          0.7584462067       -1.8025338568       -2.3520270273
 C          2.0863857139       -1.5529121862       -2.0519126332
 C          2.4755170721       -1.4548690536       -0.7227640770
 C          1.5361395660       -1.6117475320        0.2899788677
 H          1.8420236561       -1.5157266890        1.3230152149
 N          3.8307246469       -1.2039104842       -0.4231232083
 S          4.4697620583        0.2886097811       -0.8397897730
 O          4.1114488156        0.5835727372       -2.2025612269
 O          5.8814519766        0.2067200590       -0.5454040658
 C          3.6955452257        1.4436647658        0.2776754661
 C          2.3520279477        1.7227970061        0.1210987550
 C          1.7324065697        2.5592526715        1.0355071049
 C          2.4649798479        3.1066223101        2.0775875065
 C          3.8153411475        2.8236641412        2.2161121891
 C          4.4372593977        1.9757588626        1.3140104805
 H          5.4815843243        1.7182241366        1.3875743247
 H          4.3811027879        3.2531643994        3.0273196352
 H          1.9748139832        3.7544790990        2.7871034471
 H          0.6752988544        2.7509575301        0.9490335815
 H          1.8072720260        1.2833379585       -0.6996781184
 H          4.0751396153       -1.4077432309        0.5362537957
 H          2.8208141647       -1.4117754475       -2.8275176718
 H          0.4493514467       -1.8776315373       -3.3838686786
 H         -1.2096680997       -2.1581160332       -1.5794486828
 H         -0.3764018769       -1.5411153545        1.9982442212
 C         -1.1211669950       -3.4523902846        1.4368760198
 C         -0.8411634203       -4.5925863370        0.5097055429
 C         -0.0055691749       -4.4089854142        1.7388650640
 H         -0.1268197400       -5.1022689965        2.5571966351
 H          1.0059716997       -4.0568717460        1.6028409291
 H         -1.5588576993       -5.3976878669        0.4778577326
 H         -0.3948386995       -4.3741009320       -0.4478743405
 H         -2.0148451079       -3.5416395307        2.0453716880
