  62
        -98.94103784
 C         -1.6498839450       -1.5816041205       -0.2519771411
 C         -2.6506231417       -0.8594719068        0.4383233091
 C         -3.0503275322        0.4193358229       -0.1578907550
 C         -2.4885629423        0.8202267376       -1.3125562456
 C         -2.7909598462        2.0927663614       -2.0560016628
 C         -2.3176498726        3.3824949717       -1.3559842865
 C         -3.4016550588        4.0775841619       -0.5224287507
 H         -3.3047262114        5.1573494462       -0.6531695909
 H         -4.3799959585        3.7994063385       -0.9173957909
 C         -3.3642946097        3.8065439925        0.9847762677
 H         -2.5744282744        4.4126800116        1.4352524687
 H         -4.3165721036        4.1333225320        1.4093167231
 C         -3.1075028110        2.3566823865        1.3961141953
 H         -3.2880560561        2.2691432415        2.4703539317
 H         -2.0510035992        2.1190544840        1.2392978185
 C         -3.9543631987        1.3092366803        0.6440263950
 H         -4.4795729591        0.6710273144        1.3578362235
 H         -4.6909009372        1.7941928811        0.0053557719
 H         -1.4434832688        3.1551327284       -0.7435839210
 H         -1.9938624173        4.0720181217       -2.1376441567
 H         -2.2812814533        2.0011379012       -3.0171053856
 H         -3.8650599977        2.1501580711       -2.2456513489
 O         -1.5630443214        0.0752230954       -1.9698718455
 C         -1.0575018516       -1.0878751723       -1.4143028608
 O         -0.1115208828       -1.5897369269       -2.0523617160
 O         -3.1699824681       -1.2579645280        1.5183953300
 C         -1.0482882790       -2.8169429701        0.4017235962
 C          0.3727064890       -2.4575373062        0.7612543333
 C          1.4938805894       -3.1693402659        0.3580031282
 C          2.7652026706       -2.6745127931        0.6009878007
 C          2.9435304628       -1.4502115932        1.2199519906
 C          1.8268045140       -0.7479698491        1.6525609909
 C          0.5619206635       -1.2684531998        1.4567841280
 H         -0.3012505330       -0.7040312859        1.7878231513
 N          1.9946726237        0.5667496256        2.1849824281
 S          1.6651755256        1.7026220350        0.9739219700
 O          1.8677969067        2.9993357457        1.5859788339
 O          0.3576386545        1.4999200542        0.3869602271
 C          2.9528511921        1.3598921281       -0.1988905269
 C          2.7097771307        0.4912125837       -1.2441701412
 C          3.7493066967        0.1857093928       -2.1094318716
 C          5.0016275850        0.7475893824       -1.9145832000
 C          5.2273585048        1.6193073197       -0.8593597586
 C          4.1949342848        1.9271261099        0.0113233035
 H          4.3184384868        2.5978057030        0.8456775517
 H          6.2024599800        2.0545870445       -0.7113320873
 H          5.8060106040        0.5029850916       -2.5902627630
 H          3.5681480472       -0.4958918652       -2.9249847375
 H          1.7264273693        0.0630759467       -1.3699523873
 H          1.3712706308        0.7530479628        2.9605126022
 H          3.9250117224       -1.0292999463        1.3655264593
 H          3.6265754199       -3.2346956225        0.2719760295
 H          1.3715055343       -4.1003353457       -0.1708820253
 H         -1.6224971928       -2.9724981333        1.3266195979
 C         -1.1744710915       -4.0422320376       -0.4743013339
 C         -1.1556903358       -5.4083332521        0.1425688106
 C         -2.4323157229       -4.8539610429       -0.4121713235
 H         -2.8222263227       -5.2693403078       -1.3290747371
 H         -3.1967937946       -4.5330047792        0.2803564263
 H         -0.6708625427       -6.2096319953       -0.3938618414
 H         -1.0551801901       -5.4704853816        1.2155617596
 H         -0.7122605939       -3.9096083971       -1.4454744348
