  62
        -98.93163479
 C         -2.2516352780        0.0371351993        0.4937384315
 C         -3.4803527770       -0.0289806845        1.1954556154
 C         -4.6972895483        0.3375845322        0.4505564929
 C         -4.5882022708        0.7394393590       -0.8292065238
 C         -5.6342105373        1.2036416339       -1.8212473197
 C         -7.1197869771        0.9768797521       -1.5530151491
 C         -7.5589427781       -0.4868718644       -1.5796477015
 H         -8.6072214098       -0.5346382750       -1.2770002888
 H         -7.4925901452       -0.8505273135       -2.6081554261
 C         -6.7457669400       -1.4365736333       -0.7035035860
 H         -5.7137901128       -1.4710245877       -1.0592849515
 H         -7.1602896503       -2.4410835149       -0.8248305918
 C         -6.7462103043       -1.1115831506        0.7889717194
 H         -6.2679581507       -1.9468366068        1.3080465406
 H         -7.7741316098       -1.0395292705        1.1493843471
 C         -5.9954421305        0.1709608119        1.1867971060
 H         -6.6224188192        1.0507520045        1.0644248466
 H         -5.7376335805        0.0963947789        2.2472912515
 H         -7.6614877726        1.4973063732       -2.3474894567
 H         -7.4090953820        1.4449411150       -0.6167929489
 H         -5.3669719324        0.7366967692       -2.7745909814
 H         -5.4650695467        2.2786144598       -1.9481061933
 O         -3.3755987431        0.8377384653       -1.4483177843
 C         -2.1858228652        0.4945805109       -0.8215150399
 O         -1.1798750747        0.6494064648       -1.5379603119
 O         -3.5593255038       -0.3713646064        2.4057180828
 C         -0.9922328897       -0.3559968491        1.2423936635
 C          0.0998652038        0.6600619858        1.0250241024
 C         -0.1123543390        1.9705209423        1.4476897724
 C          0.8625507374        2.9340084205        1.2814117165
 C          2.0811984927        2.6072830165        0.7123000146
 C          2.3008990703        1.3047316165        0.2829655665
 C          1.3116984830        0.3427001511        0.4347784128
 H          1.5048759960       -0.6526382939        0.0709378429
 N          3.5174761075        0.9406180708       -0.3151467857
 S          4.1283765099       -0.6004896899       -0.0010733006
 O          3.5839621933       -1.5306855533       -0.9579792481
 O          3.9360275186       -0.9340987849        1.3926595785
 C          5.8610932158       -0.3390628024       -0.3359522864
 C          6.3036071338       -0.3928160817       -1.6443112838
 C          7.6439259232       -0.1588969648       -1.9079118940
 C          8.5143584978        0.1239096230       -0.8656047604
 C          8.0560719535        0.1728259161        0.4423667482
 C          6.7166063865       -0.0588365470        0.7129463719
 H          6.3168464996       -0.0404041063        1.7140876975
 H          8.7356776443        0.3894157593        1.2507460198
 H          9.5571196702        0.3042609920       -1.0739031913
 H          8.0043929085       -0.1988563561       -2.9231441478
 H          5.5920679262       -0.6247924962       -2.4197405499
 H          4.2278627493        1.6551722098       -0.2378565514
 H          2.8486279015        3.3566512532        0.5902878457
 H          0.6791179168        3.9465201052        1.6087021938
 H         -1.0606636501        2.2230806681        1.9033261067
 H         -1.2820508316       -0.3119314287        2.3065837719
 C         -0.5343290953       -1.7828889031        0.9803881408
 C         -1.5139656631       -2.8635291289        0.6370165812
 C         -0.5348435910       -2.3857704440       -0.3910508830
 H          0.2888510732       -3.0298869719       -0.6645553118
 H         -0.8937688506       -1.7749610357       -1.2047753787
 H         -1.3717956142       -3.8419974197        1.0704983571
 H         -2.5504053838       -2.5804570855        0.5236641622
 H          0.2881157211       -2.0681580540        1.6312938868
