  62
        -98.94481998
 C         -1.9298999646       -1.0826555939       -0.2547791562
 C         -3.0592360925       -1.1805713644        0.6022241560
 C         -4.2904864571       -0.5258408511        0.1451114377
 C         -4.2937896964        0.1058091410       -1.0424452445
 C         -5.4596121108        0.8592488658       -1.6122600477
 C         -5.4189792025        2.3383667751       -1.2035031412
 C         -5.1991897647        2.5602268541        0.2931085889
 H         -4.1987410195        2.2131727062        0.5625031134
 H         -5.2216883117        3.6380322629        0.4686038608
 C         -6.2337007774        1.8734345041        1.1957842799
 H         -6.5488509865        2.5799370814        1.9665385810
 H         -7.1187563815        1.6134775051        0.6139241235
 C         -5.7175964803        0.6274513422        1.9180822908
 H         -6.4455634633        0.3545272038        2.6866897462
 H         -4.7782801977        0.8614565576        2.4256645792
 C         -5.4956134255       -0.6095333349        1.0387290940
 H         -5.3181295436       -1.4609915844        1.7021418088
 H         -6.3953225708       -0.8112980313        0.4537924806
 H         -6.3565160917        2.8067007307       -1.5087831826
 H         -4.6042416364        2.8255272944       -1.7444519300
 H         -6.3845175216        0.4015838318       -1.2666027422
 H         -5.4152009260        0.7907826381       -2.7005529702
 O         -3.2033391317        0.1654024101       -1.8448188831
 C         -1.9959791096       -0.4100711737       -1.4748714613
 O         -1.0947269063       -0.2453632231       -2.3229112908
 O         -3.0368440313       -1.7979628983        1.7000472686
 C         -0.6566705998       -1.7589505660        0.2265862409
 C          0.3178495334       -0.7641114343        0.8104898523
 C          0.6869560072       -0.8268726463        2.1489046656
 C          1.6006115916        0.0717989657        2.6727930136
 C          2.1654119244        1.0484823568        1.8729206290
 C          1.7985838744        1.1212416395        0.5350460240
 C          0.8882313343        0.2161460240        0.0105340203
 H          0.6035020473        0.2827991272       -1.0289106860
 N          2.3798216832        2.1033809089       -0.2912741105
 S          4.0558627414        2.1263452676       -0.3195780635
 O          4.5425026336        2.8467804824        0.8307244416
 O          4.4184216640        2.6748994078       -1.6072510717
 C          4.5267855711        0.4094339087       -0.2035242538
 C          5.1586853651       -0.0588319278        0.9301081776
 C          5.4536410762       -1.4096744496        1.0224159984
 C          5.1083904629       -2.2644095364       -0.0125375514
 C          4.4764707689       -1.7774349710       -1.1465172942
 C          4.1790561478       -0.4283971908       -1.2446582488
 H          3.6896786433       -0.0178968881       -2.1137390994
 H          4.2101693119       -2.4423563470       -1.9525227370
 H          5.3326077663       -3.3166581476        0.0631865466
 H          5.9464089663       -1.7911769300        1.9020091294
 H          5.4063724740        0.6401551302        1.7120043907
 H          2.0089574850        2.0957892371       -1.2308867505
 H          2.8800571645        1.7568307960        2.2599393338
 H          1.8761853803        0.0110514881        3.7144104642
 H          0.2427670850       -1.5802543828        2.7827939509
 H         -0.9801221639       -2.4238727308        1.0384260255
 C          0.0203809275       -2.5991030407       -0.8397568233
 C          0.9736022516       -3.6747850338       -0.4173354049
 C         -0.3618602250       -4.0394023769       -0.9916898255
 H         -0.4028653429       -4.4581689586       -1.9860666776
 H         -1.1167692837       -4.4292765626       -0.3244802530
 H          1.8547061171       -3.8451533574       -1.0158025310
 H          1.1262594829       -3.8188668327        0.6412369600
 H          0.2473542359       -2.0481683794       -1.7428741614
