  62
        -98.94140524
 C         -1.1925279501       -0.9214586691        0.6837579404
 C         -2.0772312701       -0.8105836298       -0.4126879897
 C         -2.8336434203        0.4497663400       -0.5240419603
 C         -2.6131574505        1.4367832105        0.3633948091
 C         -3.1794811207        2.8387493105        0.4530129783
 C         -4.4415136908        3.2235868899       -0.3152480919
 C         -5.7142990606        2.5117127899        0.1410328386
 H         -5.9687893807        2.8622220204        1.1443509584
 H         -6.5252317307        2.8041010994       -0.5296350216
 C         -5.6351784304        0.9879371600        0.1896662494
 H         -4.9081712603        0.6824880505        0.9448137296
 H         -6.6106954303        0.6131061600        0.5108501596
 C         -5.2889150403        0.3085750793       -1.1341218402
 H         -5.4365707501       -0.7661575507       -0.9995220296
 H         -5.9768266804        0.6457350787       -1.9117799104
 C         -3.8463817304        0.5164999692       -1.6304576004
 H         -3.6020530102       -0.2997467511       -2.3168531799
 H         -3.7452087505        1.4466715289       -2.1854068509
 H         -4.2894319608        3.0839322893       -1.3815513518
 H         -4.5864087909        4.2955648999       -0.1547683325
 H         -3.3388208807        3.0276318011        1.5195737082
 H         -2.3664114008        3.5035089404        0.1384215279
 O         -1.7097934704        1.3022620412        1.3776846792
 C         -0.9831642802        0.1394802914        1.5612930398
 O         -0.1966062602        0.1753863721        2.5299941798
 H          1.3523790298       -0.3286567590        0.0855669200
 C          1.3925431599       -1.1748538694       -0.5826112995
 C          0.5823232601       -2.2740396594       -0.3225016489
 C          0.6414502503       -3.3637761898       -1.1787985383
 C          1.4656557002       -3.3270293703       -2.2914545983
 C          2.2311256400       -2.2116059604       -2.5747874790
 C          2.1926464099       -1.1209467199       -1.7102716096
 N          2.9732314597        0.0137742601       -1.9563378702
 S          2.6637714595        1.5052718204       -1.2753409310
 O          1.2507727094        1.7795046203       -1.1494664412
 O          3.4135576193        2.4240987301       -2.1072920016
 C          3.4566202095        1.3981377614        0.3146265790
 C          4.8166692196        1.1523463717        0.3264534591
 C          5.4709404096        1.0534316924        1.5426459992
 C          4.7574420596        1.1990592130        2.7235568591
 C          3.3948835596        1.4494575528        2.6952090390
 C          2.7352826695        1.5534387620        1.4798806089
 H          1.6719638695        1.7341811618        1.4329748589
 H          2.8295502496        1.5548359532        3.6073887289
 H          5.2644179396        1.1170257936        3.6720709391
 H          6.5312651296        0.8603383426        1.5682769293
 H          5.3331256596        1.0508483012       -0.6134103508
 H          3.4033505997        0.0681038297       -2.8664923502
 H          2.8504736400       -2.1772035908       -3.4578593590
 H          1.4978041103       -4.1750665607       -2.9586798778
 H          0.0303233804       -4.2307031698       -0.9900494278
 C         -0.3447480899       -2.1705402988        0.8650211711
 H          0.2657670901       -1.9952831282        1.7625890810
 C         -1.2072793797       -3.3932627089        1.0867845818
 C         -0.6429919195       -4.5854528784        1.7977693824
 C         -1.6599418296       -3.7196103381        2.4770789020
 H         -2.6585788396       -4.1056236882        2.6163296522
 H         -1.3299201097       -3.0675403477        3.2728710816
 H         -0.9444017193       -5.5699185686        1.4735893930
 H          0.3801656605       -4.5257571980        2.1365214624
 H         -1.9110171697       -3.5611848194        0.2803239719
 O         -2.2348160300       -1.7191377803       -1.2705529491
