  62
        -98.92990211
 C          2.4450773899        1.1045112890        0.0898569494
 C          2.9709241245        0.0934656323        0.9308043083
 C          4.2166947099       -0.5652461690        0.4997626097
 C          4.7693694243       -0.2024029695       -0.6714005058
 C          6.0303542122       -0.7115881890       -1.3229440671
 C          6.2593710924       -2.2304648488       -1.2936326171
 C          7.3915736592       -2.6575753091       -0.3577826004
 H          7.7788367943       -3.6216123217       -0.6950945088
 H          8.2042040197       -1.9329751784       -0.4420834561
 C          6.9992683113       -2.8068047017        1.1110954200
 H          6.3749822007       -3.6950134762        1.2301877883
 H          7.9153684462       -2.9747815921        1.6823217064
 C          6.2578758409       -1.6121290506        1.7143597729
 H          6.3942179278       -1.6468239070        2.7974204652
 H          6.6966187180       -0.6765607443        1.3690758271
 C          4.7476426173       -1.6186752341        1.4331054606
 H          4.1989038756       -1.4607776200        2.3668787034
 H          4.4396925809       -2.6026115418        1.0677656199
 H          5.3345202873       -2.7397886275       -1.0274855896
 H          6.5222994685       -2.5460313663       -2.3045945797
 H          6.8834409121       -0.1994010053       -0.8706788860
 H          5.9732595470       -0.3647560542       -2.3572280669
 O          4.2220079620        0.7655118390       -1.4583636052
 C          3.0620961297        1.4446565157       -1.1140853816
 O          2.7145205765        2.2944877789       -1.9527390140
 O          2.4226275184       -0.2390471987        2.0175304950
 C          1.1826243342        1.7975677865        0.5690656054
 C         -0.0522704690        1.1248093403        0.0268396425
 C         -0.2147118096        0.8947694121       -1.3357655241
 C         -1.3661582151        0.2940069292       -1.8114586364
 C         -2.3730598270       -0.0930701288       -0.9441122722
 C         -2.2192397201        0.1265995127        0.4176966919
 C         -1.0632660542        0.7335641424        0.8923078907
 H         -0.9427813581        0.8937677451        1.9556021795
 N         -3.2343532335       -0.2766016911        1.3021574169
 S         -4.7986149235        0.2576343169        0.9989427169
 O         -4.7927440664        1.5211386503        0.2991715289
 O         -5.4601012926        0.2359305483        2.2850197477
 C         -5.4965949958       -1.0120852694       -0.0349258328
 C         -6.0170967819       -0.6824578132       -1.2709755645
 C         -6.5659328675       -1.6847991271       -2.0557172528
 C         -6.5847560711       -2.9914405361       -1.5924491056
 C         -6.0603220155       -3.3053211749       -0.3472792977
 C         -5.5115588643       -2.3079153005        0.4427228027
 H         -5.0984682593       -2.5094883922        1.4169772492
 H         -6.0773046267       -4.3226312484        0.0093358500
 H         -7.0112947047       -3.7698662984       -2.2052209030
 H         -6.9747884140       -1.4427137157       -3.0235811546
 H         -5.9758608535        0.3462992845       -1.5918337914
 H         -2.9983966111       -0.1530001293        2.2763793462
 H         -3.2705529739       -0.5626112024       -1.3123495090
 H         -1.4808389641        0.1243131194       -2.8713699620
 H          0.5680043997        1.1983182283       -2.0146472051
 H          1.1837650913        1.6468805811        1.6606693527
 C          1.1927375548        3.3006336151        0.3258971212
 C          0.3151870788        3.9947561600       -0.6671929675
 C          0.0454984815        4.1448240906        0.7981094302
 H          0.2574602217        5.0903740960        1.2737749614
 H         -0.8184245850        3.6335541774        1.1975038606
 H          0.7378500357        4.8266586794       -1.2092846927
 H         -0.3705737578        3.4015252689       -1.2508717804
 H          2.1856856288        3.7196047284        0.4557234240
