  62
        -98.93563600
 C         -2.2274852499       -1.2567149097        0.3628706099
 C         -2.5811589098       -0.4409130397       -0.7358100101
 C         -3.5698941397        0.6239269104       -0.4740137403
 C         -4.0329702597        0.7937814705        0.7774546797
 C         -5.0422175696        1.7921589607        1.2862523196
 C         -4.9075848194        3.2352562506        0.7762491195
 C         -6.0197808193        3.6446303007       -0.1910447306
 H         -6.9620100494        3.2229834508        0.1650969894
 H         -6.1202470292        4.7320002007       -0.1671685406
 C         -5.7998843793        3.2330345006       -1.6457401705
 H         -6.7176168193        3.4572961107       -2.1943939806
 H         -5.0052572192        3.8448660505       -2.0781193305
 C         -5.4464803295        1.7603012705       -1.8626404204
 H         -6.0454146996        1.1240891706       -1.2119721704
 H         -5.7093989895        1.5019219505       -2.8905331904
 C         -3.9540099595        1.4509502904       -1.6705583703
 H         -3.5819721895        0.8820817703       -2.5283481103
 H         -3.3784730694        2.3809563703       -1.6565844904
 H         -3.9316701194        3.3762331805        0.3142247196
 H         -4.9534409294        3.8986342007        1.6415858495
 H         -6.0431638896        1.4131782008        1.0649986596
 H         -4.9364498497        1.7715046707        2.3734434596
 O         -3.6297334798        0.0049306606        1.8166092898
 C         -2.7332704100       -1.0326584796        1.6411543599
 O         -2.4615140601       -1.6637903595        2.6839859999
 H          0.0540587302       -0.2561570799        1.0720488100
 C          0.6179050701       -0.7491480800        0.2879807200
 C          0.0854322400       -1.8824568900       -0.3147432499
 C          0.8284334400       -2.5135528302       -1.3036358598
 C          2.0597434801       -2.0091121903       -1.6859484598
 C          2.5781996802       -0.8736754804       -1.0917433199
 C          1.8488172402       -0.2406217502       -0.0938209899
 N          2.3772317203        0.9142123598        0.5212299800
 S          3.8202129503        0.7046017296        1.3654050701
 O          3.9389139101       -0.6440680503        1.8712943602
 O          3.8451297103        1.7657241197        2.3486974100
 C          5.0805072703        1.0094784294        0.1458227901
 C          5.1529032805        2.2686121594       -0.4172725300
 C          6.1294128806        2.5209101292       -1.3675690699
 C          7.0131018905        1.5165841091       -1.7342739598
 C          6.9294412603        0.2588312191       -1.1566446097
 C          5.9543599202       -0.0005745407       -0.2060279898
 H          5.8478700701       -0.9631634407        0.2679331203
 H          7.6176374702       -0.5202249810       -1.4426748397
 H          7.7718710606        1.7156331789       -2.4745126598
 H          6.1982020207        3.4978356892       -1.8183616800
 H          4.4506555606        3.0211144495       -0.0991605800
 H          1.7097788603        1.3831108599        1.1176226699
 H          3.5325466202       -0.4729843105       -1.3920090699
 H          2.6223942101       -2.5072701205       -2.4605080798
 H          0.4421484599       -3.4011353102       -1.7770357898
 C         -1.2460831301       -2.3983595298        0.1762767401
 H         -1.0871981202       -2.8267385798        1.1777888701
 C         -1.8510873801       -3.4620162398       -0.7168426899
 C         -1.4896483203       -4.9039229699       -0.5296409298
 C         -2.8468740803       -4.4132615297       -0.1267405299
 H         -3.7003561503       -4.7025906996       -0.7211442699
 H         -3.0640480603       -4.3104315796        0.9269807201
 H         -1.4143708303       -5.5344089499       -1.4027110198
 H         -0.7868797204       -5.1464920399        0.2533079302
 H         -2.0360090400       -3.1034108199       -1.7226964599
 O         -2.1004273697       -0.5932761099       -1.8887545201
