  62
        -98.94660821
 C         -2.4924680506       -0.3435213141       -0.0277118048
 C         -2.2977718862       -1.4847872863       -0.8390881689
 C         -1.6246651055       -2.6180701282       -0.1977600400
 C         -1.2412733546       -2.5234065274        1.0885777693
 C         -0.5160633261       -3.5824610178        1.8735746457
 C          1.0022253338       -3.5711281846        1.6453289365
 C          1.4610762359       -4.1484420629        0.3051641805
 H          2.5380505838       -4.3114256217        0.3805885452
 H          0.9923513672       -5.1209449636        0.1479130747
 C          1.1865913560       -3.2363304292       -0.8983442550
 H          2.0737786019       -3.2048300093       -1.5358098393
 H          1.0083209810       -2.2190875241       -0.5421129644
 C          0.0163575890       -3.6753259591       -1.7790287172
 H         -0.1175896353       -2.9293042714       -2.5666274127
 H          0.2537095820       -4.6299578134       -2.2549448909
 C         -1.3183005351       -3.8221160948       -1.0378182139
 H         -2.1133929415       -3.9155214109       -1.7821869173
 H         -1.3091392442       -4.7205697869       -0.4210544920
 H          1.3563519601       -2.5404479180        1.7352597059
 H          1.4589332953       -4.1557871329        2.4477688575
 H         -0.9187695233       -4.5668875821        1.6320299219
 H         -0.7091105547       -3.3749310744        2.9283744825
 O         -1.4912178785       -1.4262348765        1.8509839874
 C         -2.0794305576       -0.2986176806        1.3044413614
 O         -2.2024824163        0.6557124882        2.0992779250
 O         -2.6611580197       -1.5481619784       -2.0459835498
 C         -3.0729375598        0.9147565239       -0.6473964686
 C         -2.0895877412        2.0479687878       -0.4784779681
 C         -2.4629921180        3.3478350981       -0.1638205700
 C         -1.5003912018        4.3221883502        0.0395758400
 C         -0.1544404828        4.0145946210       -0.0322946052
 C          0.2288534983        2.7199828050       -0.3630222011
 C         -0.7374421744        1.7658011377       -0.6281966934
 H         -0.4301412042        0.7663311776       -0.8956893126
 N          1.5917439334        2.3499778789       -0.4370886356
 S          2.1014530880        1.1082318240        0.5981633286
 O          1.2762824225       -0.0563726438        0.4283713953
 O          2.2218768354        1.6314302742        1.9448399332
 C          3.7259623493        0.8001602308       -0.0677020796
 C          3.8430194791       -0.0511391066       -1.1490321111
 C          5.0970711398       -0.2723812732       -1.6955115280
 C          6.2068550204        0.3608997673       -1.1560306377
 C          6.0739714851        1.2120735529       -0.0695379177
 C          4.8221456137        1.4368199353        0.4815181169
 H          4.6734802384        2.0796448027        1.3341302216
 H          6.9388731494        1.7002147499        0.3498276096
 H          7.1816219450        0.1869924413       -1.5835710933
 H          5.2032396300       -0.9361621530       -2.5383974088
 H          2.9536675177       -0.5267675480       -1.5295033681
 H          2.1963545713        3.1451627455       -0.2666436589
 H          0.5949201303        4.7653022757        0.1714849618
 H         -1.8032351075        5.3286741608        0.2864097969
 H         -3.5070924741        3.5960586736       -0.0622889984
 H         -3.1805870050        0.6942663256       -1.7203528727
 C         -4.4405194265        1.2181490769       -0.0717703731
 C         -5.4844484091        1.8960504600       -0.9071333892
 C         -5.6219496266        0.4427395159       -0.5701821827
 H         -6.3787389037        0.1437800112        0.1393409338
 H         -5.4407958669       -0.2845000840       -1.3480576516
 H         -6.1524775522        2.5960610382       -0.4282372185
 H         -5.2218879965        2.1566682393       -1.9212293134
 H         -4.4002345102        1.4458672252        0.9879308096
