  62
        -98.94570112
 C         -2.5588724325       -0.1381412564        0.0769668748
 C         -2.4374885800       -1.2059885605       -0.8417153255
 C         -1.9025618436       -2.4593915658       -0.3010272562
 C         -1.5628098146       -2.5323598042        0.9989915421
 C         -0.9847061521       -3.7335855934        1.6964651151
 C          0.5339249905       -3.8687527575        1.5173076509
 C          0.9820632416       -4.3631504726        0.1410961269
 H          2.0298640979       -4.6563564122        0.2310303868
 H          0.4141577990       -5.2539828688       -0.1308476651
 C          0.8632491964       -3.3127323791       -0.9717332037
 H          0.7923515739       -2.3162566727       -0.5284459426
 H          1.7735178177       -3.3151362882       -1.5771787266
 C         -0.3107524594       -3.5205171561       -1.9289381222
 H         -0.1565280567       -4.4368715817       -2.5043747094
 H         -0.3251653881       -2.6801113872       -2.6284405355
 C         -1.6838798882       -3.5993842098       -1.2500517188
 H         -2.4510597801       -3.5346169377       -2.0262337638
 H         -1.7910381747       -4.5512622983       -0.7299192283
 H          0.9946258344       -2.8977015110        1.7164732031
 H          0.8916209907       -4.5746923865        2.2706348921
 H         -1.1980347848       -3.6072266675        2.7599808944
 H         -1.4794448467       -4.6400917013        1.3460064438
 O         -1.7276688264       -1.4936927693        1.8594138733
 C         -2.1883850714       -0.2645424281        1.4163409707
 O         -2.2414681945        0.6136943587        2.2994489548
 O         -2.7599829030       -1.1138535520       -2.0592210032
 C         -2.9976247847        1.2232826551       -0.4266286655
 C         -1.8983557620        2.2362843053       -0.2061887327
 C         -2.1431158322        3.5763407558        0.0647311841
 C         -1.0895130886        4.4560414467        0.2510426751
 C          0.2211681141        4.0212045542        0.1939342988
 C          0.4766856417        2.6789620634       -0.0715690978
 C         -0.5785105466        1.8140973190       -0.3012337849
 H         -0.3666984553        0.7818287286       -0.5387077921
 N          1.7929046512        2.1876876631       -0.0620442967
 S          2.1306793425        0.5721382565       -0.3575070572
 O          1.8352040755        0.2216416523       -1.7307997707
 O          1.5061297879       -0.2266972980        0.6662889023
 C          3.8955994518        0.5930762468       -0.1111317187
 C          4.3768210573        0.6132283066        1.1842558879
 C          5.7463811719        0.6565636295        1.3904152358
 C          6.6077692943        0.6793979898        0.3032676372
 C          6.1106859659        0.6560175768       -0.9909533135
 C          4.7414180031        0.6134440387       -1.2034467460
 H          4.3084412436        0.5850480041       -2.1903865000
 H          6.7826391608        0.6701546363       -1.8338290542
 H          7.6733479941        0.7125929254        0.4664986863
 H          6.1358851044        0.6716780415        2.3955497438
 H          3.6679178814        0.5848768062        1.9957928776
 H          2.4900533678        2.8231239099       -0.4196133021
 H          1.0397323962        4.7033674276        0.3615783736
 H         -1.2945719378        5.4958470481        0.4560097896
 H         -3.1586856781        3.9313049885        0.1325237054
 H         -3.1417386896        1.1025182340       -1.5119906437
 C         -4.3157730214        1.6343961612        0.1974024072
 C         -5.3075297789        2.4450276152       -0.5810145295
 C         -5.5785566972        0.9987429359       -0.2995783325
 H         -6.3441096989        0.7434207430        0.4174492705
 H         -5.4874896857        0.2919130091       -1.1115973653
 H         -5.8927758373        3.1849294679       -0.0561190815
 H         -5.0458918054        2.7209041448       -1.5915290046
 H         -4.2291813344        1.8111060868        1.2635932673
