  62
        -98.94473001
 C         -1.5082234288       -1.7686516090       -0.4754731505
 C         -1.5379325269       -0.5935346008       -1.2675164698
 C         -2.7417877133        0.2438447918       -1.1298574753
 C         -3.7145078053       -0.1210739593       -0.2775374240
 C         -4.9635664497        0.6652703352       -0.0060049412
 C         -4.7729447273        1.6338714053        1.1688961932
 C         -3.5161154461        2.4987757062        1.0664008679
 H         -3.5160629253        3.1752788309        1.9244386894
 H         -2.6271899899        1.8700624971        1.1621384306
 C         -3.4086805024        3.3168721546       -0.2277216084
 H         -3.0890465443        4.3296362047        0.0270106634
 H         -4.3876282447        3.3934437273       -0.7038793822
 C         -2.3906911170        2.7691624456       -1.2296819428
 H         -1.4459808989        2.5833230356       -0.7119502290
 H         -2.2075052332        3.5383507984       -1.9854664709
 C         -2.8082913122        1.4900418765       -1.9671048577
 H         -3.8080716236        1.6180618267       -2.3885583857
 H         -2.1046371058        1.3367651407       -2.7907605258
 H         -5.6527588558        2.2776406355        1.2297923942
 H         -4.7127113528        1.0522711620        2.0918608638
 H         -5.2408641389        1.2165877816       -0.9025230688
 H         -5.7628960816       -0.0360760160        0.2405273659
 O         -3.6511290110       -1.2523756621        0.4716215940
 C         -2.5485300613       -2.0861859824        0.4014717925
 O         -2.6138695163       -3.0825362228        1.1511776772
 O         -0.6277326735       -0.2445552136       -2.0613033894
 C         -0.3393291708       -2.7407515938       -0.4533988790
 C          0.6350048686       -2.3793105414        0.6413332295
 C          1.2580755413       -3.3630751864        1.4008643537
 C          2.1492947365       -3.0160481605        2.4008993067
 C          2.4271593889       -1.6882291995        2.6692406861
 C          1.7940706741       -0.6944446158        1.9282568646
 C          0.9177276349       -1.0490309990        0.9129829694
 H          0.4239344703       -0.2744988407        0.3514897757
 N          2.0112802963        0.6520675322        2.2248673248
 S          1.6796652160        1.9293713700        1.2075091062
 O          2.1744522708        3.0765613472        1.9395693550
 O          0.2818110370        1.9529840945        0.8637485346
 C          2.7134069640        1.6763958501       -0.2225863348
 C          4.0633443370        1.9307846068       -0.0613400445
 C          4.9190337985        1.7385620658       -1.1319927632
 C          4.4123867434        1.2981145656       -2.3461987734
 C          3.0572437387        1.0520074978       -2.4919012063
 C          2.1931903829        1.2380470828       -1.4220889626
 H          1.1381568203        1.0346154245       -1.5225089616
 H          2.6552007755        0.7104714527       -3.4321399482
 H          5.0762903581        1.1482373256       -3.1829815256
 H          5.9734871327        1.9329449554       -1.0194181509
 H          4.4116572928        2.2923146727        0.8925207279
 H          2.7352396521        0.8527453311        2.8960188894
 H          3.1109902772       -1.4177821514        3.4589710629
 H          2.6279687524       -3.7878690123        2.9842374835
 H          1.0230367132       -4.4016720348        1.2203274621
 H         -0.7766375850       -3.7174772206       -0.1885917141
 C          0.3382715060       -2.8992127779       -1.8078197193
 C          1.6807817778       -2.3197926573       -2.1241341171
 C          1.5275234942       -3.8005400204       -1.9638527176
 H          1.5847859466       -4.4254941666       -2.8421673359
 H          1.9371117394       -4.2509663267       -1.0731290101
 H          1.8287432750       -1.9140199750       -3.1124446346
 H          2.1909084575       -1.7687429178       -1.3488859683
 H         -0.3842522287       -2.9070113431       -2.6171535728
