  62
        -98.94471884
 C          1.5158877831        1.7573921173       -0.4689370745
 C          1.5449809995        0.5800595823       -1.2578485630
 C          2.7576488956       -0.2467646889       -1.1326040529
 C          3.7402632240        0.1321298683       -0.2977604971
 C          5.0000257449       -0.6414071788       -0.0391111538
 C          4.8339480988       -1.6005364228        1.1471793223
 C          3.5828028472       -2.4761133519        1.0683679108
 H          2.6907404596       -1.8526616587        1.1694206068
 H          3.5985802833       -3.1451001873        1.9320664658
 C          3.4658951006       -3.3057548864       -0.2175645329
 H          3.1598792242       -4.3196004725        0.0492580929
 H          4.4391971770       -3.3766057580       -0.7060202051
 C          2.4297200070       -2.7765821007       -1.2109448725
 H          1.4879758363       -2.5986801642       -0.6849199886
 H          2.2476064019       -3.5531884823       -1.9594041001
 C          2.8232766939       -1.4979628338       -1.9624918300
 H          2.1055986432       -1.3571987116       -2.7761882091
 H          3.8177055876       -1.6189492419       -2.3985194984
 H          4.7809794443       -1.0107973602        2.0654060538
 H          5.7197345575       -2.2364797210        1.2023421942
 H          5.2683960612       -1.1984522442       -0.9347291014
 H          5.7970562635        0.0686150016        0.1892868075
 O          3.6784669786        1.2669765674        0.4460044996
 C          2.5668161392        2.0893509080        0.3898998689
 O          2.6343887237        3.0897048004        1.1340300880
 H         -0.4257576182        0.2449927398        0.3465791907
 C         -0.9092762969        1.0150249418        0.9231832228
 C         -0.6243409175        2.3476594954        0.6648015399
 C         -1.2355753764        3.3244932317        1.4426704704
 C         -2.1168491290        2.9691541847        2.4485325689
 C         -2.3974618065        1.6392912913        2.7033214738
 C         -1.7771707680        0.6521894978        1.9428934186
 N         -1.9989003665       -0.6971686868        2.2244922804
 S         -1.7124945715       -1.9559561407        1.1703711044
 O         -2.2231989397       -3.1093421639        1.8816937980
 O         -0.3207374981       -2.0038393388        0.8052763579
 C         -2.7607412073       -1.6444902970       -0.2376657925
 C         -4.1157699500       -1.8550007653       -0.0572317731
 C         -4.9815729470       -1.6193904849       -1.1109480893
 C         -4.4794847827       -1.1820310137       -2.3281305529
 C         -3.1191894180       -0.9807550567       -2.4932713394
 C         -2.2448596705       -1.2084721120       -1.4398842574
 H         -1.1852183999       -1.0381045790       -1.5526880323
 H         -2.7216369230       -0.6424755469       -3.4365874273
 H         -5.1512617319       -0.9992229624       -3.1519892770
 H         -6.0402064786       -1.7784371190       -0.9832335916
 H         -4.4613212634       -2.2170379301        0.8974178370
 H         -2.7189372446       -0.9006128981        2.8992288001
 H         -3.0737153751        1.3617397113        3.4971068530
 H         -2.5855461895        3.7357563661        3.0466441675
 H         -0.9989293348        4.3642675948        1.2712548304
 C          0.3399548243        2.7203514743       -0.4348901653
 H          0.7727868541        3.6985823871       -0.1685647377
 C         -0.3471329636        2.8812909567       -1.7842629194
 C         -1.6968105560        2.3126465256       -2.0891437922
 C         -1.5305958472        3.7920432916       -1.9295486242
 H         -1.5912052879        4.4181272971       -2.8068000022
 H         -1.9279785361        4.2450401016       -1.0345557168
 H         -2.2051897716        1.7653379265       -1.3101673187
 H         -1.8565168658        1.9093229271       -3.0765885964
 H          0.3686292866        2.8834969485       -2.5995642711
 O          0.6274953085        0.2220572347       -2.0391908580
