  62
        -98.94404844
 C          1.8168163198        1.1640415910       -0.0302781601
 C          2.2330974397        0.0591528709       -0.8115932099
 C          3.6858630497       -0.1181903591       -0.9369947702
 C          4.5223548297        0.7525237111       -0.3438580305
 C          6.0256145397        0.7134579412       -0.3975740308
 C          6.6627397400       -0.2281276886        0.6336993593
 C          6.4997688200       -1.7204751087        0.3420569996
 H          6.8262328198       -1.9283980189       -0.6773653604
 H          7.1742159601       -2.2537046985        1.0150016696
 C          5.0751663501       -2.2546032987        0.5472516600
 H          4.5018326801       -1.5450881886        1.1482863300
 H          5.1139666602       -3.1907718286        1.1086627102
 C          4.3103607798       -2.5348242690       -0.7464639598
 H          3.3017175699       -2.8654722390       -0.4845136795
 H          4.7987218198       -3.3442011091       -1.2939517997
 C          4.1821690096       -1.3226501692       -1.6780199900
 H          5.1386063395       -1.1109995793       -2.1557264103
 H          3.4484146594       -1.5618009694       -2.4519273298
 H          7.7308234300       -0.0010317285        0.6652985090
 H          6.2455843602       -0.0019765284        1.6176275493
 H          6.3491265096        0.4303265010       -1.3995615008
 H          6.3703729797        1.7296394512       -0.1946682111
 O          4.0801081998        1.8129218212        0.3833860893
 C          2.7255750899        2.0315130412        0.5762592995
 O          2.4611820700        3.0160620814        1.2956215494
 H         -1.7369943103       -0.2117237493       -0.6708504391
 C         -1.3352417201       -0.4867433690        0.2895439809
 C         -0.2907405300        0.2296573111        0.8506087605
 C          0.2175340803       -0.1794435486        2.0820379905
 C         -0.2955739096       -1.2875356885        2.7258519708
 C         -1.3334593996       -2.0072288986        2.1594499112
 C         -1.8494137899       -1.6063761589        0.9328739612
 N         -2.8903839300       -2.3277665591        0.3411816815
 S         -3.9413432702       -1.6753283794       -0.7661158784
 O         -5.0687103802       -2.5844601394       -0.7556183280
 O         -3.3023093305       -1.4901146096       -2.0447932986
 C         -4.4529018502       -0.0933379993       -0.1152517986
 C         -4.6648308999        0.0570738310        1.2406659314
 C         -5.0974932799        1.2836224011        1.7188076512
 C         -5.3196060701        2.3315438509        0.8389131610
 C         -5.1107701203        2.1628701706       -0.5206518490
 C         -4.6721426704        0.9401664305       -1.0031423988
 H         -4.4888394406        0.7662269103       -2.0515553688
 H         -5.2846977905        2.9780353305       -1.2046940791
 H         -5.6571283901        3.2847324510        1.2141152409
 H         -5.2599361697        1.4176010913        2.7761465912
 H         -4.4897998597       -0.7713987888        1.9070157415
 H         -3.2980355198       -3.0648178290        0.8948146018
 H         -1.7315150195       -2.8793197985        2.6551445814
 H          0.1127558406       -1.5953777282        3.6766599808
 H          1.0311578503        0.3832427616        2.5200142802
 C          0.3365332698        1.4299423110        0.1860162001
 H          0.2804388299        2.2756729212        0.8863945600
 C         -0.3239159004        1.8327200307       -1.1144112798
 C         -1.5654597305        2.6706474507       -1.0942739498
 C         -0.2648458806        3.2685398006       -1.5378602702
 H         -0.1284387008        3.4920727404       -2.5853264702
 H          0.2362416395        3.9594492608       -0.8753957004
 H         -1.9583028403        2.9602251808       -0.1314136098
 H         -2.3225562906        2.4813429205       -1.8394752596
 H         -0.2276719006        1.0793942506       -1.8881557897
 O          1.4409179496       -0.7379665793       -1.3781691496
