  62
        -98.94849106
 C         -2.3481946864       -0.6508512818        0.1717073615
 C         -1.5434500240       -0.0336152001       -0.8153992256
 C         -1.7066644713        1.4193811763       -0.9677636362
 C         -2.5712355966        2.0741574083       -0.1732826139
 C         -2.8396225477        3.5501603936       -0.2219587432
 C         -1.9399636787        4.3269124542        0.7477310060
 C         -0.4554736953        3.9793279387        0.6336574993
 H         -0.2909816191        2.9554888745        0.9788944569
 H          0.0843205534        4.6327212877        1.3235825142
 C          0.1289597705        4.1329411461       -0.7774345805
 H          1.0985483256        4.6293549105       -0.6981814587
 H         -0.5163391578        4.7723075004       -1.3819014258
 C          0.3667477915        2.8063442955       -1.5014052732
 H          0.8904592429        2.1251693474       -0.8260903549
 H          1.0218663370        2.9943136345       -2.3565961209
 C         -0.8881829317        2.0987179378       -2.0295749697
 H         -0.5623493836        1.3063790602       -2.7097884929
 H         -1.4999607424        2.8061846270       -2.5940863727
 H         -2.2626736128        4.1127343351        1.7694068849
 H         -2.0797820842        5.3943977568        0.5642546451
 H         -2.6850487912        3.9056865340       -1.2390946807
 H         -3.8824047987        3.7154117573        0.0562333550
 O         -3.2987419766        1.4562086342        0.7930763511
 C         -3.1835932318        0.0927891023        1.0074666383
 O         -3.8724986960       -0.3364436982        1.9560392325
 H         -0.3097545495       -1.0230812145        1.8390392039
 C          0.0613019146       -1.8516391196        1.2523855474
 C         -0.8154394510       -2.5733018688        0.4509215481
 C         -0.3124631066       -3.6343777072       -0.2906310115
 C          1.0357428608       -3.9464601064       -0.2430070428
 C          1.9119251314       -3.1938125135        0.5167857217
 C          1.4172348100       -2.1292007259        1.2615664324
 N          2.2687266214       -1.3005840334        2.0241416876
 S          2.3900556376        0.2992101931        1.5334299882
 O          3.3063607772        0.9133379631        2.4711667549
 O          1.0784209469        0.8857453086        1.4487607318
 C          3.1687525762        0.2156373123       -0.0705821623
 C          2.4381008603       -0.2065501712       -1.1634684285
 C          3.0818767144       -0.3221109128       -2.3867881715
 C          4.4300666902       -0.0206093029       -2.4968815980
 C          5.1488089919        0.3997478658       -1.3876410461
 C          4.5150503252        0.5148058739       -0.1614962376
 H          5.0301499004        0.8393528923        0.7282943461
 H          6.1972787678        0.6356656771       -1.4737169162
 H          4.9223448150       -0.1133720438       -3.4521783155
 H          2.5156912863       -0.6499475706       -3.2437924276
 H          1.3866682397       -0.4309460454       -1.0660571266
 H          3.2002215221       -1.6764151505        2.1415092584
 H          2.9681422203       -3.4179339474        0.5297142920
 H          1.4121275792       -4.7739032472       -0.8248895070
 H         -0.9699819199       -4.2053096511       -0.9251927859
 C         -2.2624807008       -2.1435230929        0.4467496569
 H         -2.6506251853       -2.2653180225        1.4722654893
 C         -3.1441750973       -2.9938240318       -0.4567837459
 C         -4.3614697451       -2.4188155171       -1.1158470852
 C         -3.1739140018       -2.8048052907       -1.9426940799
 H         -3.2519591949       -3.6804726966       -2.5702638014
 H         -2.5578884425       -2.0219301630       -2.3551987700
 H         -4.5644863497       -1.3681571380       -0.9654835819
 H         -5.2499748793       -3.0301252690       -1.1688626073
 H         -3.2382840196       -4.0115173090       -0.0906050031
 O         -0.7366978187       -0.6588409452       -1.5523011837
