  62
        -98.94726544
 C          0.9645614400        1.5378049917       -0.8715800928
 C          2.2734479748        1.4958363225       -0.3248742334
 C          3.0527108420        0.2823541171       -0.5837320499
 C          2.5130600293       -0.7088273556       -1.3146687811
 C          3.1591513901       -2.0285527224       -1.6368074411
 C          3.0023180238       -3.0673345774       -0.5173754606
 C          3.8888853462       -2.8375238405        0.7072586431
 H          3.8664195199       -3.7575095353        1.2951141769
 H          4.9197521946       -2.6781349655        0.3877874018
 C          3.4358901312       -1.6752596195        1.6023325448
 H          2.3921612142       -1.4318424949        1.3853993230
 H          3.4708305030       -1.9901160191        2.6485388136
 C          4.2877430627       -0.4105385668        1.4853403792
 H          5.2952960122       -0.6133888103        1.8570102543
 H          3.8412977168        0.3583712878        2.1212174420
 C          4.3981404317        0.1564322207        0.0644194114
 H          5.0542091836       -0.4695366569       -0.5403213760
 H          4.8306308673        1.1581603001        0.1300844709
 H          3.2434234065       -4.0463621638       -0.9389305508
 H          1.9568199352       -3.0861533073       -0.1972951558
 H          2.6674552121       -2.4080339541       -2.5352434072
 H          4.2174236177       -1.8819233372       -1.8547485060
 O          1.2799257447       -0.6120474024       -1.8696031676
 C          0.4584755816        0.4822490557       -1.6306159567
 O         -0.6642319048        0.3755808772       -2.1631363493
 O          2.7671287023        2.4374996220        0.3539029549
 C          0.1080463814        2.7260368697       -0.4658748741
 C         -0.6144744228        2.3792247675        0.8164428140
 C         -0.5965794230        3.2255683989        1.9182867920
 C         -1.1969198414        2.8440618482        3.1057947425
 C         -1.7870035029        1.5987261145        3.2303715317
 C         -1.8109461024        0.7475521300        2.1317337160
 C         -1.2680518541        1.1610179145        0.9263091458
 H         -1.3140271279        0.4984013133        0.0778701304
 N         -2.3607483750       -0.5411987983        2.2036023320
 S         -1.5903838411       -1.7824986622        1.3744046167
 O         -1.9684072956       -2.9816345720        2.0982090712
 O         -0.1688493296       -1.5523649539        1.2581839929
 C         -2.3694022311       -1.8374467608       -0.2230179196
 C         -1.6599964377       -2.3671777090       -1.2807489566
 C         -2.2762680090       -2.4728792791       -2.5166510759
 C         -3.5859102509       -2.0492290538       -2.6713329077
 C         -4.2860392833       -1.5206507693       -1.5979566341
 C         -3.6766370519       -1.4158026609       -0.3584867120
 H         -4.1883190656       -1.0025603602        0.4949775767
 H         -5.3032456107       -1.1857674455       -1.7241305643
 H         -4.0607940732       -2.1258333135       -3.6369125952
 H         -1.7263154436       -2.8731025340       -3.3532593848
 H         -0.6347736537       -2.6656596184       -1.1261386295
 H         -2.6554207528       -0.8348420444        3.1237549260
 H         -2.2146961751        1.2826717087        4.1695947019
 H         -1.1775382698        3.5105029448        3.9547832697
 H         -0.0876257403        4.1754230704        1.8493508968
 H          0.8136526000        3.5380046591       -0.2415063507
 C         -0.8628689530        3.2096470327       -1.5228083650
 C         -1.3416104469        4.6288581625       -1.4759198821
 C         -0.3966063982        4.1916011033       -2.5537195345
 H         -0.7680311995        4.0914199558       -3.5621394608
 H          0.6299526213        4.5237457325       -2.4982896258
 H         -2.3666865288        4.8337389941       -1.7430624102
 H         -0.9555889137        5.2636648709       -0.6929519097
 H         -1.5635539634        2.4492329712       -1.8409252417
