  62
        -98.94146909
 C         -2.5665135342       -0.1020747889        0.1157198528
 C         -2.5430977320        1.0380623826        0.9566359798
 C         -2.1674196057        2.3055655370        0.3239113492
 C         -1.8559623430        2.3282092791       -0.9843749377
 C         -1.4327331619        3.5364438389       -1.7741360110
 C          0.0643495437        3.8500603657       -1.6454760435
 C          0.4829437205        4.4735329474       -0.3131970161
 H          1.4916633600        4.8689815000       -0.4474967199
 H         -0.1712377620        5.3151991970       -0.0814000465
 C          0.4979401860        3.4892608392        0.8648558326
 H          1.4144286789        3.6273507496        1.4447159998
 H          0.5251841184        2.4641807955        0.4856626038
 C         -0.6727840800        3.6365988791        1.8375828048
 H         -0.6062168853        4.6016227010        2.3462910428
 H         -0.5844002119        2.8501940679        2.5922976382
 C         -2.0599744882        3.5225793639        1.1926188331
 H         -2.7997785332        3.4265330363        1.9916632896
 H         -2.2809013619        4.4207074401        0.6158975146
 H          0.3244907035        4.5445016337       -2.4479052186
 H          0.6270217661        2.9259086872       -1.8006737828
 H         -2.0190183747        4.4036945723       -1.4686460056
 H         -1.6519094578        3.3164538040       -2.8211254318
 O         -1.9038406602        1.2179517657       -1.7639016868
 C         -2.2047164794       -0.0273513872       -1.2312039549
 O         -2.1314188257       -0.9565324994       -2.0575706815
 O         -2.8156527798        0.9942997519        2.1883498786
 C         -2.8129951170       -1.4517040400        0.7670819650
 C         -1.6902021273       -2.3921916538        0.3999744525
 C         -1.8665320380       -3.7137956396        0.0166065527
 C         -0.7703987539       -4.5000832758       -0.3009738157
 C          0.5112351937       -3.9854976371       -0.2686566963
 C          0.6969658043       -2.6562378697        0.1024827188
 C         -0.3949222909       -1.8912211252        0.4672385913
 H         -0.2387131283       -0.8694609127        0.7838029952
 N          1.9760146489       -2.0757064082        0.0640452681
 S          2.2200906603       -0.4585882453        0.4261065263
 O          1.9856071550       -0.1965717728        1.8314025477
 O          1.4797431143        0.3448769638       -0.5130158523
 C          3.9655406085       -0.3436681463        0.0842671207
 C          4.3748093102       -0.1607959153       -1.2227723929
 C          5.7315928685       -0.1018989853       -1.4987971196
 C          6.6520079836       -0.2281621746       -0.4687630353
 C          6.2267974922       -0.4095119202        0.8385928185
 C          4.8710066002       -0.4688257027        1.1207505690
 H          4.4930301893       -0.5969222195        2.1223005544
 H          6.9443050653       -0.5039761175        1.6376397091
 H          7.7072853369       -0.1818692530       -0.6864571971
 H          6.0651767522        0.0424275741       -2.5137418002
 H          3.6215575815       -0.0607587915       -1.9873691705
 H          2.7345441647       -2.6810639546        0.3382305688
 H          1.3599909707       -4.5931620173       -0.5404633436
 H         -0.9211826825       -5.5283258618       -0.5932429485
 H         -2.8595274106       -4.1271538569       -0.0499904532
 H         -2.7301380116       -1.2437901981        1.8488424582
 C         -4.2008130148       -2.0350889910        0.5485542205
 C         -5.3451744079       -1.1718123940        0.1107282311
 C         -4.7900907413       -2.2072661792       -0.8182291379
 H         -5.3829251668       -3.0891913426       -1.0123352066
 H         -4.1964720780       -1.8805072377       -1.6569932009
 H         -6.3142481909       -1.3406068949        0.5561636787
 H         -5.1345932304       -0.1329433883       -0.0998253156
 H         -4.4383632707       -2.8022924984        1.2793138183
