  62
        -98.94533292
 C         -1.5526217529       -1.0487897548        0.2756584832
 C         -2.8779490247       -1.1828119781        0.7602863003
 C         -3.9455137507       -0.7811741705       -0.1611428068
 C         -3.6307694310       -0.3217070066       -1.3857787040
 C         -4.6062953158        0.1135766760       -2.4454687618
 C         -5.0842042404        1.5642035667       -2.2940888754
 C         -6.0553422059        1.8119360471       -1.1390240398
 H         -6.4751996737        2.8095602214       -1.2824442542
 H         -6.8791599907        1.1001104318       -1.1999312737
 C         -5.4140293132        1.7425967417        0.2540454872
 H         -5.7493620460        2.5933855512        0.8516399699
 H         -4.3284950608        1.8274246259        0.1603723240
 C         -5.7466305137        0.4757816393        1.0426631696
 H         -5.2111074453        0.5151551691        1.9945803538
 H         -6.8168364882        0.4497658176        1.2592999423
 C         -5.3591730487       -0.8292403870        0.3349414686
 H         -5.4304813159       -1.6453528970        1.0580189959
 H         -6.0449878174       -1.0290746903       -0.4879099655
 H         -5.5828737893        1.8419702629       -3.2256316066
 H         -4.2097525780        2.2097171999       -2.1808257034
 H         -4.0878610266        0.0205777893       -3.4021969020
 H         -5.4668811639       -0.5559493833       -2.4494472904
 O         -2.3471918637       -0.2172461583       -1.8191268836
 C         -1.2770180225       -0.5524358287       -0.9990175059
 O         -0.1639338827       -0.3819163171       -1.5303113249
 H          2.0366268233       -0.3423678238        0.5451518905
 C          1.4851159040        0.2765970248        1.2293281961
 C          0.2381723021       -0.1276377906        1.6768008071
 C         -0.4522911239        0.6941989190        2.5651391090
 C          0.0962903592        1.8876955759        2.9917589000
 C          1.3372463655        2.2940585293        2.5300524711
 C          2.0308750728        1.4860508101        1.6388866880
 N          3.3010877532        1.8532199809        1.1597184798
 S          3.5564085225        1.8402590013       -0.5044365485
 O          4.7197721037        2.6857164453       -0.6858928849
 O          2.3686667397        2.2434697355       -1.2194467446
 C          4.0125630301        0.1616774044       -0.8785649943
 C          5.1975942330       -0.3123369361       -0.3502156599
 C          5.5759315882       -1.6174218061       -0.6197548148
 C          4.7678705717       -2.4198327699       -1.4116282278
 C          3.5840132002       -1.9257796484       -1.9375906965
 C          3.1968840159       -0.6207763303       -1.6719369347
 H          2.2658406495       -0.2143784073       -2.0373673350
 H          2.9509048209       -2.5497004968       -2.5488779621
 H          5.0597874504       -3.4372491731       -1.6201318774
 H          6.4950033604       -2.0059503588       -0.2116947716
 H          5.7971653884        0.3480422421        0.2537476468
 H          3.6559579594        2.7129622109        1.5554530277
 H          1.7638853099        3.2311379113        2.8556252145
 H         -0.4473240585        2.5127995104        3.6843779092
 H         -1.4272874604        0.3821897005        2.9133421554
 C         -0.4110429017       -1.4091027661        1.2131738352
 H         -0.8922882648       -1.8754973059        2.0845878736
 C          0.5551090387       -2.3973522890        0.5968616113
 C          1.5469186963       -3.1030973177        1.4712669428
 C          0.3968640470       -3.8598144753        0.8796562632
 H          0.5940703686       -4.5614578957        0.0833645556
 H         -0.4091599403       -4.1585119636        1.5338779773
 H          1.5205092839       -2.8862936124        2.5283545589
 H          2.5377271453       -3.2817205992        1.0819676333
 H          0.8718207321       -2.1184295097       -0.4002417546
 O         -3.1550513086       -1.6214063744        1.9085890361
