  62
        -98.94384809
 C         -1.7445282181       -1.2821746661        0.9567716846
 C         -2.8900283969       -0.7781492252        0.2943649082
 C         -3.2070619724        0.6346245508        0.5645839494
 C         -2.4432715613        1.3600039515        1.3984862834
 C         -2.6367148156        2.8095111913        1.7504730242
 C         -2.0312689634        3.7707883085        0.7181672818
 C         -2.8200552802        3.9010287985       -0.5856504603
 H         -3.8705860725        4.0920873526       -0.3611356743
 H         -2.4313534836        4.7775718172       -1.1081390808
 C         -2.6986727875        2.6854413157       -1.5151736040
 H         -1.8236843220        2.0976479188       -1.2268201413
 H         -2.5212972223        3.0275970000       -2.5382331790
 C         -3.9317852807        1.7818420278       -1.5480520827
 H         -4.7728687982        2.3279161941       -1.9827278413
 H         -3.7124245677        0.9295298688       -2.1965009830
 C         -4.3606515843        1.2378345084       -0.1797503820
 H         -4.8205045431        2.0296058580        0.4113720477
 H         -5.0981635584        0.4478103209       -0.3439558311
 H         -1.0148788572        3.4400375957        0.4881527355
 H         -1.9686800667        4.7575878793        1.1836254933
 H         -3.6988463015        3.0240989400        1.8745869017
 H         -2.1341479246        2.9677995349        2.7071586168
 O         -1.3794481429        0.8277034840        2.0534053804
 C         -0.9881837603       -0.4737835982        1.8125601163
 O          0.0395572138       -0.8195289328        2.4331958498
 H         -0.3293896927       -0.8548665140       -1.0765862743
 C          0.4704710113       -1.5161112072       -0.7767855521
 C          0.2329388411       -2.5167623920        0.1537745202
 C          1.2879268934       -3.3423114020        0.5243349457
 C          2.5475048256       -3.1656985200       -0.0210219428
 C          2.7897559134       -2.1345220303       -0.9111211171
 C          1.7438325590       -1.2965061652       -1.2765617031
 N          1.9423850656       -0.1735270656       -2.1110138440
 S          1.7938443983        1.3019336379       -1.3170755345
 O          0.4891677187        1.4095248583       -0.7222061449
 O          2.1352875456        2.3019179077       -2.3060104507
 C          3.0685768773        1.2399224686       -0.0707699772
 C          4.3082208494        1.7695148450       -0.3766893777
 C          5.3345042353        1.6560293618        0.5462971469
 C          5.1075896803        1.0061765201        1.7506184382
 C          3.8594620343        0.4775542526        2.0401162059
 C          2.8246813653        0.5912552341        1.1231830361
 H          1.8449488006        0.1901388730        1.3346868185
 H          3.6739391254       -0.0289552601        2.9737459447
 H          5.9066139716        0.9117605467        2.4689387415
 H          6.3049109025        2.0697315340        0.3238667369
 H          4.4349010216        2.2685410732       -1.3241012813
 H          2.8256561470       -0.1873308413       -2.6040248494
 H          3.7799831667       -1.9683018301       -1.3082125803
 H          3.3559169219       -3.8173642908        0.2726908773
 H          1.1218051426       -4.1123745867        1.2632673718
 C         -1.1437977504       -2.6694259633        0.7547801743
 H         -1.0089763635       -3.1037709853        1.7606704847
 C         -2.0116929884       -3.6312376955       -0.0395861543
 C         -1.8607333344       -3.8148906789       -1.5166639704
 C         -1.4486336570       -4.9110916818       -0.5826203810
 H         -2.0609846657       -5.7983702315       -0.5293679222
 H         -0.3916118717       -5.0934411056       -0.4652817747
 H         -2.7598238659       -3.9302064198       -2.1021674565
 H         -1.0857416986       -3.2543702095       -2.0181718010
 H         -3.0235575050       -3.6738372912        0.3450042778
 O         -3.6339690811       -1.4362368760       -0.4777457646
