  62
        -98.94912065
 C         -1.2940245263       -1.5323845664        0.5508534046
 C         -2.2404569511       -1.1884650086       -0.4447749272
 C         -3.2061420194       -0.1481806186       -0.0715613575
 C         -3.1531264401        0.4104088613        1.1509242913
 C         -4.0524973129        1.5002011751        1.6665768310
 C         -3.5982105364        2.9084889084        1.2574961651
 C         -3.8419566673        3.2703007165       -0.2083185406
 H         -4.8780924894        3.0522049485       -0.4708752618
 H         -3.7015190418        4.3494859003       -0.2973587865
 C         -2.8977887134        2.5721161854       -1.1974685433
 H         -2.5318318058        3.3012975053       -1.9249459338
 H         -2.0180544289        2.2016205937       -0.6642184984
 C         -3.5359489290        1.4287474264       -1.9877801281
 H         -4.3074912850        1.8302645295       -2.6493348915
 H         -2.7614926345        0.9717031627       -2.6094324588
 C         -4.1616026266        0.3260274698       -1.1241041607
 H         -4.3916567390       -0.5239728688       -1.7715050461
 H         -5.0858606290        0.6818902947       -0.6695891423
 H         -4.1403049847        3.6224570657        1.8824227508
 H         -2.5323862761        3.0113622053        1.4784726024
 H         -5.0744262685        1.3305691631        1.3264188944
 H         -4.0313763106        1.4340667637        2.7565664080
 O         -2.2474223821        0.0306886316        2.0904548746
 C         -1.2688025230       -0.9047502383        1.7953718172
 O         -0.4445580757       -1.0939082831        2.7151429661
 O         -2.2724699351       -1.7103985629       -1.5895544175
 C         -0.1679172614       -2.4945708555        0.2229823995
 C          0.6970854157       -1.9104573373       -0.8713685619
 C          1.3446208044       -2.6790050935       -1.8309500637
 C          2.1360744312       -2.0728247287       -2.7919358347
 C          2.3147220820       -0.7007741137       -2.8113652581
 C          1.6738565781        0.0757750108       -1.8529548088
 C          0.8788074879       -0.5356364555       -0.8985932233
 H          0.3680776516        0.0823333253       -0.1778387977
 N          1.8043170318        1.4719193952       -1.8260754671
 S          1.8203079681        2.2811886597       -0.3626445844
 O          0.5067025634        2.2968158435        0.2299207438
 O          2.3807173867        3.5764360316       -0.6847733950
 C          2.9771432432        1.3655720005        0.6404934866
 C          2.5480577427        0.5436015220        1.6618541275
 C          3.4890071572       -0.1901462804        2.3689049606
 C          4.8330408112       -0.0902126156        2.0476368137
 C          5.2499798659        0.7477002368        1.0238010926
 C          4.3152156432        1.4793604154        0.3115150745
 H          4.5985286830        2.1511425238       -0.4824608875
 H          6.2966461445        0.8296493928        0.7791211548
 H          5.5581258740       -0.6661937251        2.6006018665
 H          3.1537428723       -0.8374957089        3.1637689450
 H          1.4980861032        0.4751415423        1.9015600458
 H          2.4671888278        1.8585811496       -2.4809987998
 H          2.9313058124       -0.2339328334       -3.5637524159
 H          2.6264776860       -2.6801669208       -3.5373658938
 H          1.2220582260       -3.7498237178       -1.8316470768
 H          0.4482326820       -2.5634478951        1.1326901085
 C         -0.7025402525       -3.8723708473       -0.1083567367
 C          0.0897259501       -5.0958163756        0.2398564941
 C         -1.1499592625       -4.7613594536        1.0118489279
 H         -2.0310942379       -5.3683224196        0.8682888357
 H         -1.0414305672       -4.3821111986        2.0178941820
 H          0.0584295926       -5.9388146197       -0.4339051956
 H          1.0413907642       -4.9548649594        0.7297695323
 H         -1.2894012556       -3.8813386369       -1.0191468495
