  62
        -98.93908914
 C          2.6846660025       -1.2044931979        0.3964562513
 C          2.4891100784        0.0336621023        1.0553416151
 C          3.6187343336        0.9738598418        0.9989700573
 C          4.7472813898        0.6170318062        0.3602202255
 C          5.9444442497        1.5020759346        0.1723352456
 C          5.8476432716        2.2918894223       -1.1406654412
 C          4.5046719636        2.9940808950       -1.3430330163
 H          4.5640434617        3.5426933665       -2.2856109089
 H          3.7212954484        2.2412573872       -1.4602254383
 C          4.1153640684        3.9586632197       -0.2140248789
 H          4.9974729560        4.2162351113        0.3733494625
 H          3.7399968379        4.8829912223       -0.6581264741
 C          3.0206784054        3.4360230495        0.7181123411
 H          2.6726735165        4.2695200075        1.3340142125
 H          2.1698224215        3.0887057915        0.1260568075
 C          3.4385921718        2.3070794117        1.6686701804
 H          2.6331217947        2.1704355438        2.3959781632
 H          4.3437689222        2.5943683217        2.2071601627
 H          6.6522341201        3.0292381869       -1.1602125809
 H          6.0000291466        1.6003093174       -1.9725693080
 H          6.8361295848        0.8737144834        0.1429327194
 H          6.0210152123        2.1859373801        1.0152899512
 O          4.9066292470       -0.5902587059       -0.2401486296
 C          3.8789300669       -1.5165330913       -0.2575164927
 O          4.1476669878       -2.5688489507       -0.8714806037
 O          1.4345231081        0.3493607306        1.6656362391
 C          1.5752001816       -2.2423714716        0.3229800823
 C          0.4918129836       -1.6966891868       -0.5761038189
 C          0.6492384799       -1.7947367350       -1.9558569137
 C         -0.2956621250       -1.2630890224       -2.8130156534
 C         -1.4101491282       -0.6106153559       -2.3146922136
 C         -1.5727194399       -0.5009714520       -0.9403297782
 C         -0.6327204236       -1.0564977079       -0.0800772670
 H         -0.7627288783       -0.9551942799        0.9857976065
 N         -2.6788147432        0.1984567279       -0.4177216066
 S         -4.2100644251       -0.1988140337       -1.0061755453
 O         -4.4439453905       -1.6209169936       -0.8741958611
 O         -4.3462588981        0.3379845915       -2.3366232357
 C         -5.2458702059        0.7104627805        0.1222261077
 C         -5.4426374346        2.0594729840       -0.1031916336
 C         -6.2242272766        2.7796480387        0.7859021394
 C         -6.7920803804        2.1427164852        1.8794366496
 C         -6.5869805202        0.7877294705        2.0912934438
 C         -5.8049850498        0.0617849720        1.2065497961
 H         -5.6266461868       -0.9948113186        1.3272768638
 H         -7.0322408951        0.2950945554        2.9406903509
 H         -7.4006905528        2.7053347138        2.5696432775
 H         -6.3881080790        3.8327944492        0.6237170298
 H         -4.9891986460        2.5096192465       -0.9707068676
 H         -2.6792969310        0.1821873583        0.5937423588
 H         -2.1539640291       -0.1914715033       -2.9724848315
 H         -0.1633114338       -1.3521390068       -3.8811201911
 H          1.5294052820       -2.2875237356       -2.3463924010
 H          2.0150315347       -3.1179681623       -0.1729109943
 C          1.0865522981       -2.6568008732        1.6948690361
 C          0.2419292929       -3.8873446081        1.8275717448
 C          1.6533038084       -3.8885086461        2.3313151104
 H          1.8204037308       -3.8860988710        3.3980015875
 H          2.3950000449       -4.4430678731        1.7750738498
 H         -0.5617128277       -3.8885603243        2.5480882357
 H          0.0232953793       -4.4401953607        0.9261478709
 H          0.8716600640       -1.8198638867        2.3469206443
