  62
        -98.93682969
 C          1.0746109528        0.6746939229        0.8741116732
 C          1.8684115481        0.7364809935       -0.2970350505
 C          2.5328427682       -0.5165807246       -0.6798308215
 C          2.3005604907       -1.6420619466        0.0171442128
 C          2.8717151955       -3.0026743132       -0.2784561808
 C          4.2810570836       -3.2285272896        0.2866906015
 C          5.4013581384       -2.4789160604       -0.4353801620
 H          6.3458075478       -2.8962343118       -0.0805277042
 H          5.3383865199       -2.6786277444       -1.5055249999
 C          5.4085951637       -0.9633433684       -0.1920189133
 H          4.7984304608       -0.7324223351        0.6840696206
 H          6.4264582394       -0.6349682398        0.0295249182
 C          4.9101453096       -0.1299863783       -1.3726573675
 H          4.9203520014        0.9225198473       -1.0786997225
 H          5.5891229166       -0.2505246908       -2.2197020328
 C          3.4885488649       -0.4778784524       -1.8335785923
 H          3.4843659935       -1.4307977188       -2.3631680569
 H          3.1457504936        0.3016645960       -2.5187138299
 H          4.2809081796       -2.9529988993        1.3437849081
 H          4.4888882615       -4.2991002163        0.2217390027
 H          2.1960699243       -3.7295146525        0.1782178510
 H          2.8758808244       -3.1684787328       -1.3564479276
 O          1.4744712051       -1.6753376533        1.0968409100
 C          0.8561483144       -0.5220495093        1.5546102411
 O          0.1410097371       -0.6924127594        2.5640533772
 O          2.0209951476        1.7726162423       -0.9919362268
 C          0.3148959297        1.9026555385        1.3693488814
 C         -0.5410036047        2.3666430158        0.2141902078
 C         -0.4703187553        3.5581277735       -0.4936838348
 C         -1.2847051738        3.7698162648       -1.5954482450
 C         -2.1618872372        2.7995705724       -2.0384073505
 C         -2.2454220149        1.6012113506       -1.3375887625
 C         -1.4702104771        1.4168063984       -0.2083268698
 H         -1.5431142461        0.4836164494        0.3320615434
 N         -3.1113521421        0.5752602114       -1.7453307559
 S         -2.6623265992       -1.0232279531       -1.5247613835
 O         -1.2336315193       -1.2119610143       -1.6290439912
 O         -3.4669251749       -1.7512525605       -2.4857739548
 C         -3.2449723601       -1.4115717384        0.1108089151
 C         -4.5274840472       -1.0305128942        0.4547863906
 C         -5.0015796962       -1.3432096844        1.7180152469
 C         -4.1907127538       -2.0287608585        2.6105907354
 C         -2.9085599354       -2.4097415832        2.2478757097
 C         -2.4298813095       -2.1017200417        0.9842561729
 H         -1.4302490679       -2.3655853403        0.6743582181
 H         -2.2681055637       -2.9299373983        2.9417287107
 H         -4.5575791074       -2.2670098767        3.5965144748
 H         -5.9983330357       -1.0492407216        2.0050989908
 H         -5.1248274833       -0.4978389224       -0.2660821731
 H         -3.5629678780        0.7246640448       -2.6358358501
 H         -2.7656820509        2.9567977207       -2.9190715695
 H         -1.2098549123        4.7024110257       -2.1343140509
 H          0.2342589484        4.3244357022       -0.2274863186
 H         -0.3793035043        1.5162285575        2.1340535052
 C          1.2609773268        2.8320809768        2.1115769784
 C          2.1869963365        3.8236279407        1.4796423656
 C          1.0392118520        4.2999992137        2.3206146305
 H          1.2650494902        4.7060903477        3.2956695628
 H          0.1920625779        4.7648641143        1.8439786490
 H          3.1845830008        3.9034024107        1.8881984009
 H          2.1590420612        3.9294345578        0.4077964431
 H          1.6719666162        2.2953640378        2.9647599894
