  62
        -98.94570204
 C         -2.5613058653       -0.1362648342        0.0687922326
 C         -2.4265431058       -1.1970177841       -0.8563838629
 C         -1.8993678628       -2.4546591307       -0.3179453123
 C         -1.5802820458       -2.5384622207        0.9866543708
 C         -1.0195698602       -3.7476412424        1.6846728119
 C          0.5011834839       -3.8899336986        1.5318957813
 C          0.9713989583       -4.3737919650        0.1593756082
 H          2.0161785347       -4.6724106259        0.2651357368
 H          0.4046214944       -5.2596279376       -0.1305989112
 C          0.8767077693       -3.3127525081       -0.9456348616
 H          0.8020626244       -2.3200923859       -0.4945960014
 H          1.7975364650       -3.3134877799       -1.5349297608
 C         -0.2808639639       -3.5064098106       -1.9255365147
 H         -0.1196636895       -4.4174626090       -2.5074592628
 H         -0.2793462473       -2.6588330826       -2.6165362811
 C         -1.6664569935       -3.5871069934       -1.2725466351
 H         -1.7856137877       -4.5431736944       -0.7627662998
 H         -2.4190869111       -3.5134256406       -2.0620648088
 H          0.8409427542       -4.6051075947        2.2848293373
 H          0.9638562520       -2.9236530057        1.7487715352
 H         -1.2512254959       -3.6284172593        2.7451944540
 H         -1.5125781861       -4.6488657225        1.3184424200
 O         -1.7547917656       -1.5055272690        1.8520657052
 C         -2.2069250288       -0.2720941163        1.4115039053
 O         -2.2682569309        0.6003427326        2.2997815587
 O         -2.7324922558       -1.0956189927       -2.0773997019
 C         -2.9949787767        1.2283481626       -0.4305534142
 C         -1.8949740402        2.2384364263       -0.2003550827
 C         -2.1388209711        3.5778414678        0.0746225599
 C         -1.0846970295        4.4556168799        0.2669517628
 C          0.2256105162        4.0195736054        0.2105477258
 C          0.4802121766        2.6779677361       -0.0589569831
 C         -0.5754078298        1.8146332209       -0.2923505372
 H         -0.3642244936        0.7827754419       -0.5321603018
 N          1.7964523717        2.1863101116       -0.0507839641
 S          2.1332030611        0.5713064280       -0.3500025934
 O          1.8339010112        0.2220792730       -1.7228002539
 O          1.5110662375       -0.2281533431        0.6748931849
 C          3.8990289615        0.5919764251       -0.1093098458
 C          4.7412259841        0.6010218699       -1.2045779500
 C          6.1112453106        0.6443834218       -0.9972017956
 C          6.6127514896        0.6797882012        0.2950149726
 C          5.7549932324        0.6680835537        1.3852268455
 C          4.3847021937        0.6239252283        1.1841980477
 H          3.6786628742        0.6042507827        1.9984558418
 H          6.1479933609        0.6925233521        2.3888167713
 H          7.6789088269        0.7137427062        0.4542786413
 H          6.7802920312        0.6499684780       -1.8425216576
 H          4.3047813912        0.5641416424       -2.1897392461
 H          2.4927821651        2.8221768739       -0.4091800339
 H          1.0446842693        4.7003344468        0.3813561986
 H         -1.2890401838        5.4949210371        0.4751598497
 H         -3.1541454883        3.9338167027        0.1405750233
 H         -3.1330720712        1.1128643894       -1.5172880488
 C         -4.3157893751        1.6394703003        0.1877719301
 C         -5.3011392242        2.4562294646       -0.5924157980
 C         -5.5773562341        1.0093518601       -0.3192701004
 H         -6.3475212123        0.7526279390        0.3922848029
 H         -5.4837064586        0.3062007992       -1.1341805473
 H         -5.8874520783        3.1951765609       -0.0673466800
 H         -5.0332754531        2.7361198103       -1.6001866529
 H         -4.2350414264        1.8109942119        1.2552451617
