  62
        -98.92900314
 C         -2.5294035559        0.9826683838        0.5808852451
 C         -2.6481209451       -0.1828157011       -0.2136546133
 C         -3.9947509468       -0.4761079560       -0.7423326743
 C         -5.0056559204        0.3739523039       -0.4983622786
 C         -6.4345615437        0.3041657229       -0.9769785244
 C         -7.1312090228       -1.0625505178       -0.9422870973
 C         -6.7052208204       -1.9782297526        0.2143543339
 H         -6.1193193667       -1.4138414117        0.9418504274
 H         -7.5981358569       -2.3410983932        0.7267870291
 C         -5.9038637012       -3.1959185796       -0.2520664448
 H         -6.3767172387       -3.6040346303       -1.1479976365
 H         -5.9520950533       -3.9652866097        0.5223132889
 C         -4.4256946167       -2.9368659526       -0.5406821727
 H         -4.0006729709       -3.8498278670       -0.9645554671
 H         -3.8955499850       -2.7421154034        0.3956343983
 C         -4.1317911656       -1.7679600393       -1.4956754953
 H         -3.1589072294       -1.9484960411       -1.9612335658
 H         -4.8830787991       -1.7001357147       -2.2787085231
 H         -6.9646556576       -1.5809455506       -1.8855011181
 H         -8.2029773180       -0.8672845175       -0.8767648878
 H         -6.4689231847        0.6973693709       -1.9973619275
 H         -6.9795011647        1.0087162956       -0.3438244622
 O         -4.8347392357        1.5115386945        0.2345424459
 C         -3.6101081135        1.8425319552        0.7857769871
 O         -3.6088247630        2.9164903155        1.4207750999
 O         -1.6877661944       -0.9480821495       -0.4842763190
 C         -1.2034407320        1.4088168058        1.1868755016
 C         -0.1108827628        1.3278551301        0.1478193230
 C         -0.2574605917        2.0689166010       -1.0222800897
 C          0.7134220200        2.0426994344       -2.0039982538
 C          1.8580963465        1.2828814742       -1.8387648966
 C          2.0192569694        0.5478960764       -0.6732323814
 C          1.0415737653        0.5776522845        0.3148126025
 H          1.1738487470       -0.0156497915        1.2061721837
 N          3.1773577373       -0.2316874415       -0.5041691435
 S          4.6467638336        0.4758770035       -0.9439934002
 O          4.6916395245        1.8460496763       -0.4840467486
 O          4.8460848075        0.2813093024       -2.3585126049
 C          5.8035799764       -0.5232937495       -0.0271332407
 C          6.2144162154       -0.0981751412        1.2222890834
 C          7.0967867161       -0.8878287776        1.9424657240
 C          7.5486756719       -2.0838642942        1.4051670171
 C          7.1274670141       -2.4970057046        0.1499126764
 C          6.2460169014       -1.7117963282       -0.5761557801
 H          5.8993669515       -1.9875770700       -1.5583785570
 H          7.4836222377       -3.4259798306       -0.2652182832
 H          8.2361353367       -2.6960406403        1.9672669061
 H          7.4285976538       -0.5676999445        2.9170636576
 H          5.8458461209        0.8438153263        1.5959135693
 H          3.2268562029       -0.6531712377        0.4130990325
 H          2.6275364897        1.2546801093       -2.5937887433
 H          0.5808173250        2.6191966441       -2.9077200763
 H         -1.1523404065        2.6632934950       -1.1540851250
 H         -1.3403479436        2.4746100310        1.4357877367
 C         -0.8578746890        0.7053461963        2.4912810652
 C         -1.9327641366        0.1535622810        3.3786580762
 C         -0.9981415830       -0.7760689895        2.6678987410
 H         -0.2534059593       -1.2954543979        3.2537123000
 H         -1.3694165384       -1.3439351992        1.8299662290
 H         -1.8283835314        0.2757896520        4.4463639929
 H         -2.9531296522        0.2226927212        3.0300603904
 H         -0.0206861525        1.1798310105        2.9948098442
