  62
        -98.94911355
 C          1.2765540236        1.5402557692        0.5470839062
 C          2.2255150956        1.2026505376       -0.4482680593
 C          3.1998266218        0.1709742004       -0.0737270156
 C          3.1523454823       -0.3853573005        1.1500026778
 C          4.0595312385       -1.4682637529        1.6663397509
 C          3.6124159185       -2.8798571976        1.2607652573
 C          3.8561615491       -3.2435279299       -0.2046178613
 H          4.8908432557       -3.0207493758       -0.4689795252
 H          3.7210865593       -4.3236366677       -0.2909811319
 C          2.9073614249       -2.5525889828       -1.1944598626
 H          2.5454725070       -3.2853223789       -1.9203966286
 H          2.0255900015       -2.1865344002       -0.6615519515
 C          3.5383053936       -1.4070479516       -1.9874410492
 H          4.3121254371       -1.8052521382       -2.6483636011
 H          2.7608398177       -0.9561044964       -2.6097750572
 C          4.1574164823       -0.2986020364       -1.1263964264
 H          5.0845133533       -0.6474312898       -0.6722333398
 H          4.3810625158        0.5517115634       -1.7756159865
 H          2.5474507887       -2.9881262218        1.4832995032
 H          4.1592685056       -3.5895672373        1.8863797076
 H          5.0797494490       -1.2933837131        1.3237495239
 H          4.0402503059       -1.3999908870        2.7562418449
 O          2.2452600266       -0.0100924161        2.0899554519
 C          1.2587136518        0.9167803654        1.7937701636
 O          0.4349964633        1.1025364571        2.7146354603
 H         -0.3760085323       -0.0897359195       -0.1743935588
 C         -0.8868952523        0.5208805225       -0.9012117789
 C         -0.7141299791        1.8970002884       -0.8799049802
 C         -1.3609398929        2.6565742855       -1.8469860948
 C         -2.1424057716        2.0403336985       -2.8098029010
 C         -2.3119746885        0.6670693097       -2.8235000113
 C         -1.6722357690       -0.1004844080       -1.8571011322
 N         -1.7946137635       -1.4972176583       -1.8236312023
 S         -1.8023102386       -2.2979871930       -0.3557668743
 O         -0.4855542223       -2.3080779690        0.2298827199
 O         -2.3622643865       -3.5961436981       -0.6670396140
 C         -2.9549156725       -1.3775144289        0.6478392764
 C         -2.5223291561       -0.5673532481        1.6769931168
 C         -3.4587319305        0.1709443290        2.3852287735
 C         -4.8021381714        0.0873916033        2.0568364791
 C         -5.2228774220       -0.7391955262        1.0253583817
 C         -4.2925269446       -1.4755436908        0.3121277667
 H         -4.5794404030       -2.1386300837       -0.4878069246
 H         -6.2691484854       -0.8082448217        0.7751644730
 H         -5.5238421675        0.6670902173        2.6103225561
 H         -3.1201203867        0.8092345215        3.1859520619
 H         -1.4726457941       -0.5102635328        1.9208039873
 H         -2.4561213495       -1.8902745127       -2.4761048196
 H         -2.9204311188        0.1923524919       -3.5776169682
 H         -2.6319810525        2.6406193643       -3.5614885162
 H         -1.2454922271        3.7281753933       -1.8522034302
 C          0.1412934269        2.4908052399        0.2166689162
 H         -0.4779935063        2.5530103240        1.1247099429
 C          0.6627901853        3.8740004983       -0.1128244814
 C         -0.1433122786        5.0891027738        0.2326797320
 C          1.0967660797        4.7671348536        1.0093670326
 H          1.9721689515        5.3831941610        0.8695363835
 H          0.9882073230        4.3862168147        2.0147953742
 H         -0.1179402098        5.9326624685       -0.4406249773
 H         -1.0953980013        4.9383003583        0.7188195433
 H          1.2528433934        3.8890924382       -1.0214721410
 O          2.2527317493        1.7230616772       -1.5938650994
