  62
        -98.93780299
 C         -1.7805614458       -1.0707231723        0.4443291536
 C         -2.7130668264       -0.9377119108       -0.6107728215
 C         -4.0159102619       -0.3354421304       -0.2649421536
 C         -4.2384569008        0.0950575979        0.9902960560
 C         -5.4645910761        0.7059047188        1.6364575066
 C         -6.6274816505        1.2097261529        0.7859670321
 C         -6.3128915316        2.4430592062       -0.0605434548
 H         -7.1711135215        2.6438341360       -0.7054997766
 H         -6.1914932882        3.3000223763        0.6069910507
 C         -5.0552923208        2.3500558464       -0.9211785776
 H         -4.9433412889        3.2988788291       -1.4530847365
 H         -4.1782636525        2.2380474620       -0.2800315994
 C         -5.0555543871        1.2321023946       -1.9616192353
 H         -4.1766361038        1.3739511360       -2.5963885021
 H         -5.9418778807        1.3182406665       -2.5932831738
 C         -4.9922391751       -0.1972473765       -1.3975830262
 H         -4.6328423844       -0.8559994934       -2.1934657169
 H         -5.9773305265       -0.5493968694       -1.1016077936
 H         -7.4258329423        1.4830560822        1.4813415848
 H         -7.0140835007        0.4076894314        0.1641859082
 H         -5.8451491712       -0.0557200470        2.3261691744
 H         -5.0954506886        1.5267943444        2.2597432069
 O         -3.2877300065       -0.0152609699        1.9654179272
 C         -2.0511618037       -0.5795955435        1.7217618787
 O         -1.2868697098       -0.5857646403        2.7092289755
 O         -2.4922323134       -1.3124893054       -1.7907126541
 C         -0.4034219156       -1.6781455368        0.2279394821
 C          0.4473286093       -0.6793670773       -0.5176542631
 C          0.6491921602       -0.7222094025       -1.8909405350
 C          1.4316808881        0.2360053740       -2.5128087804
 C          2.0386431707        1.2409560986       -1.7813086939
 C          1.8416888407        1.2904051091       -0.4073747449
 C          1.0480962362        0.3384837254        0.2127667629
 H          0.8846799801        0.3826160839        1.2823499512
 N          2.5128862108        2.2771223374        0.3505319879
 S          4.1872280681        2.1309316731        0.2972989954
 O          4.6751359644        2.7236475637        1.5223639758
 O          4.6725748022        2.7162587196       -0.9265202922
 C          4.4605943697        0.3678145750        0.2833826274
 C          4.2488391844       -0.3324137284        1.4543911696
 C          4.3454083993       -1.7142295298        1.4363663999
 C          4.6400139448       -2.3691652317        0.2502164061
 C          4.8542608975       -1.6513909442       -0.9160676269
 C          4.7621644741       -0.2690106319       -0.9033053066
 H          4.9185170771        0.3262693738       -1.7875666839
 H          5.0840340523       -2.1643281681       -1.8357955853
 H          4.7035969572       -3.4460190894        0.2361913925
 H          4.1805499810       -2.2742431708        2.3431859769
 H          4.0209196800        0.2104160435        2.3582084499
 H          2.2078609551        2.3023998667        1.3137889600
 H          2.6692854402        1.9818788630       -2.2458858539
 H          1.5756858122        0.1958205112       -3.5816350692
 H          0.1771796903       -1.4961406027       -2.4727145299
 H          0.0275119645       -1.7926263288        1.2318833156
 C         -0.4509669188       -3.0390990491       -0.4328853071
 C          0.7928985332       -3.8750663050       -0.4365808625
 C         -0.3718440753       -4.2673915346        0.4205217383
 H         -0.9560089259       -5.1295440615        0.1355002429
 H         -0.2910655544       -4.1309512759        1.4892552611
 H          1.0120065233       -4.4704517151       -1.3092121918
 H          1.6655908645       -3.4632264735        0.0482142018
 H         -1.0954427941       -3.0777578812       -1.3010817936
