  62
        -98.93343682
 C         -1.7130840363       -1.1516258905        0.4289371762
 C         -2.0448395774       -0.0483650320       -0.3940077796
 C         -3.4583032496        0.0535025905       -0.8078634763
 C         -4.3459970923       -0.8591378464       -0.3800199790
 C         -5.8135246823       -0.9723410787       -0.7093656680
 C         -6.6407968938        0.3205725993       -0.7136975695
 C         -6.1910764732        1.3829886666        0.2997791856
 H         -7.0572929082        1.7111581324        0.8772923485
 H         -5.4754803541        0.9520510673        1.0020583575
 C         -5.5744127893        2.6175332256       -0.3624696773
 H         -6.1794861377        2.8881561143       -1.2306349987
 H         -5.6196487706        3.4530140964        0.3402792744
 C         -4.1162806257        2.4711707066       -0.7964336435
 H         -3.4676572725        2.4300801125        0.0830889767
 H         -3.8386720791        3.3692166816       -1.3539191071
 C         -3.8033649081        1.2395361535       -1.6617985905
 H         -4.6198954305        1.0199149247       -2.3456653970
 H         -2.9074608782        1.4619010848       -2.2484621237
 H         -7.6733550736        0.0342683005       -0.5067732095
 H         -6.6307979477        0.7566737171       -1.7116714795
 H         -6.2179415712       -1.6627438961        0.0347368484
 H         -5.9063913196       -1.4593912575       -1.6844792446
 O         -3.9890061989       -1.8850823574        0.4436923454
 C         -2.6843898164       -2.0503821713        0.8748943136
 O         -2.5202814539       -3.0154459147        1.6473121185
 O         -1.2162041965        0.8148723627       -0.7814836637
 C         -0.2960587079       -1.3862427798        0.9235487085
 C          0.3262482248       -0.0859049418        1.3682486734
 C         -0.2606883746        0.6054681910        2.4250582958
 C          0.2707088960        1.8009038829        2.8672007521
 C          1.4092488555        2.3220738893        2.2786732605
 C          2.0096081727        1.6351784985        1.2295348137
 C          1.4665866025        0.4387258659        0.7808405465
 H          1.9135804193       -0.0523308774       -0.0660132165
 N          3.1964508251        2.1157971572        0.6695573937
 S          3.8305166618        1.6182295201       -0.7852556267
 O          4.9789487429        2.4816046062       -0.9689763252
 O          2.8659971379        1.6276753963       -1.8589415463
 C          4.3905783479       -0.0436831620       -0.4737570869
 C          4.9978968660       -0.3358921904        0.7312611848
 C          5.4409796691       -1.6287512079        0.9605923007
 C          5.2748574158       -2.6013292657       -0.0136519671
 C          4.6707422672       -2.2902780093       -1.2219789614
 C          4.2256458498       -0.9990279827       -1.4568168305
 H          3.7420789333       -0.7128429988       -2.3778724169
 H          4.5425741378       -3.0472269302       -1.9794286559
 H          5.6170768659       -3.6078215960        0.1686889742
 H          5.9119074930       -1.8749047314        1.8986683690
 H          5.1082217117        0.4421921140        1.4678323292
 H          3.4749482793        3.0471103292        0.9353314030
 H          1.8271462597        3.2555908809        2.6232045520
 H         -0.2032669080        2.3333239157        3.6783412476
 H         -1.1518521966        0.1980207636        2.8841065885
 H         -0.4101265504       -2.0236626925        1.8164550342
 C          0.5775881192       -2.1617111393       -0.0517785177
 C         -0.0148313822       -3.1824192159       -0.9754995908
 C          0.5460306176       -1.9080493554       -1.5274796076
 H          1.4765517505       -1.9499473020       -2.0739953973
 H         -0.1344227686       -1.1543195472       -1.8917204913
 H          0.5299216381       -4.0993684365       -1.1413204816
 H         -1.0877246541       -3.3083959710       -0.9624499566
 H          1.5440432579       -2.4085555900        0.3782749525
