  62
        -98.93877342
 C         -1.8896327532       -0.8285268719       -0.3360964468
 C         -2.9947974556       -1.1298786272        0.4943523368
 C         -4.2985753801       -0.5525442653        0.1154636044
 C         -4.3642771450        0.2304608424       -0.9774899455
 C         -5.5591973146        0.9606522838       -1.5304079339
 C         -5.9112299539        2.2191630872       -0.7209570364
 C         -5.8813608437        2.0384048784        0.7944419973
 H         -4.8876287243        1.7016254993        1.0955266244
 H         -6.0411253255        3.0199664926        1.2485879942
 C         -6.9340237561        1.0864236656        1.3574441084
 H         -7.9274986404        1.4482088798        1.0830551989
 H         -6.8562536870        1.1257271898        2.4470074082
 C         -6.8124641447       -0.3766376329        0.9258867054
 H         -7.1911821631       -0.5215299836       -0.0823001319
 H         -7.4566266303       -0.9646278896        1.5862184646
 C         -5.4098906552       -0.9628660721        1.0515131006
 H         -5.0344901209       -0.7794627024        2.0646732136
 H         -5.4794120554       -2.0539030525        0.9642432137
 H         -5.1885825699        2.9980600372       -0.9768689639
 H         -6.9001022752        2.5623779952       -1.0298101120
 H         -5.2984789510        1.2636558087       -2.5469455693
 H         -6.4108331526        0.2898126576       -1.5934917985
 O         -3.2692498267        0.5038344065       -1.7423914965
 C         -2.0159205310       -0.0037283735       -1.4529088063
 O         -1.1276442769        0.3418553413       -2.2558314775
 O         -2.9015095933       -1.8542674494        1.5215624090
 C         -0.5320014632       -1.3969885096        0.0409806141
 C          0.3529742747       -0.2616230232        0.4893522090
 C          0.2052901214        0.2491543034        1.7759560331
 C          0.9803932200        1.3076973230        2.2115974437
 C          1.9177146022        1.8834607196        1.3709038122
 C          2.0653208933        1.3859895898        0.0839429017
 C          1.2953348576        0.3146709597       -0.3480942719
 H          1.4140401261       -0.0519871435       -1.3553656621
 N          3.0310635460        1.9617558596       -0.7722037749
 S          4.6212440675        1.7452858720       -0.2885881118
 O          4.8747354374        2.5624070811        0.8705090966
 O          5.4304807895        2.0182598871       -1.4545129270
 C          4.7121732839        0.0179809925        0.1459886597
 C          4.9443165871       -0.9028840611       -0.8561527364
 C          4.9274071348       -2.2522598599       -0.5436308350
 C          4.6650362048       -2.6557021919        0.7566707838
 C          4.4312969349       -1.7184812840        1.7509037836
 C          4.4536227877       -0.3669508290        1.4460608557
 H          4.2808546050        0.3921165255        2.1909947295
 H          4.2274396220       -2.0347492540        2.7612782736
 H          4.6436516216       -3.7073275784        0.9957701207
 H          5.1134513729       -2.9842674179       -1.3131624995
 H          5.1465646380       -0.5471111843       -1.8538584927
 H          2.9252573737        1.6646943975       -1.7323106062
 H          2.5404215499        2.7026373889        1.6927302287
 H          0.8545487253        1.6902179046        3.2131946783
 H         -0.5335871682       -0.1939506694        2.4290814477
 H         -0.7215070184       -2.0430378757        0.9086830342
 C          0.0714928234       -2.2315262379       -1.0692898173
 C          1.2738991587       -3.0763671566       -0.7734251500
 C         -0.0548772366       -3.7233153526       -1.0203658399
 H         -0.2060247608       -4.2566824319       -1.9469009751
 H         -0.5797651110       -4.1527919169       -0.1798806446
 H          2.0395709605       -3.1663120045       -1.5284464304
 H          1.6545767492       -3.0599949639        0.2364757199
 H          0.0076666896       -1.7611553520       -2.0431206174
