  62
        -98.94291476
 C         -2.0188417242       -0.9893470838        0.4076554502
 C         -2.6540661734        0.0606270577        1.1219245516
 C         -4.0838934882        0.2552096550        0.8621945674
 C         -4.7203625487       -0.5610563941        0.0031135745
 C         -6.1834886432       -0.5171027291       -0.3449011554
 C         -6.5374126437        0.5026831623       -1.4357966521
 C         -6.4801446416        1.9672329224       -0.9997632721
 H         -6.9590563421        2.5547251301       -1.7855980400
 H         -7.0687763751        2.0984211610       -0.0912436609
 C         -5.0598832590        2.5060355542       -0.7774168622
 H         -4.9602158001        3.4816046660       -1.2586221679
 H         -4.3372565549        1.8397458150       -1.2544915421
 C         -4.6717792380        2.6847116957        0.6905020350
 H         -3.6362560575        3.0330282045        0.7314272681
 H         -5.3026092123        3.4513025832        1.1462376289
 C         -4.7743159507        1.4051826795        1.5308846232
 H         -4.2754992899        1.5821541941        2.4870772932
 H         -5.8198052756        1.1628628927        1.7212999584
 H         -7.5551299787        0.2843277588       -1.7673105224
 H         -5.8701803031        0.3499082630       -2.2870925966
 H         -6.4463281073       -1.5133706037       -0.7068513411
 H         -6.7664646669       -0.3083606376        0.5526523063
 O         -4.0836905602       -1.5665818717       -0.6487285938
 C         -2.7237584168       -1.7968161324       -0.4859465157
 O         -2.2978744951       -2.7376328718       -1.1831165310
 H          1.2057285820        0.8518277151        0.9661572962
 C          1.1675489233        0.4908606096       -0.0507939856
 C          0.3172933843       -0.5522262984       -0.3890137548
 C          0.2785420353       -0.9822931298       -1.7121904358
 C          1.0708053639       -0.3751002330       -2.6686266903
 C          1.9297950069        0.6544994264       -2.3243816682
 C          1.9779500871        1.0904610206       -1.0063714545
 N          2.8417423592        2.1344516662       -0.6238847727
 S          3.9344731986        1.8640669630        0.6151989772
 O          3.2338827964        1.6487699389        1.8543852327
 O          4.8342463667        2.9945144523        0.5694737893
 C          4.7979383173        0.3819544051        0.1245550747
 C          5.9826579605        0.5016473007       -0.5756532410
 C          6.6196521100       -0.6465176991       -1.0177958928
 C          6.0572085026       -1.8884562180       -0.7641801848
 C          4.8655090370       -1.9915957558       -0.0632381447
 C          4.2272203358       -0.8473775876        0.3883345126
 H          3.3013966753       -0.8924660653        0.9377841505
 H          4.4254976386       -2.9560716008        0.1330192350
 H          6.5500196736       -2.7820892201       -1.1133219776
 H          7.5484585078       -0.5698596052       -1.5598011108
 H          6.3852774404        1.4869967909       -0.7464635899
 H          3.3139362697        2.5761622170       -1.4004222276
 H          2.5520278603        1.1236955490       -3.0715334833
 H          1.0255914272       -0.7130413245       -3.6927916859
 H         -0.3909580309       -1.7837103845       -1.9837781050
 C         -0.5375794244       -1.1949018508        0.6773968663
 H         -0.3461497359       -0.6610415170        1.6188194165
 C         -0.1558402421       -2.6496906079        0.8691624400
 C          1.0268463210       -2.9846982942        1.7254811143
 C         -0.3593815310       -3.2866403393        2.2093410901
 H         -0.6845725633       -4.3153781130        2.2459551875
 H         -0.7695960578       -2.6716002850        2.9974900329
 H          1.5539903145       -2.1677519043        2.1965982169
 H          1.6585135272       -3.8092723175        1.4335241026
 H         -0.3398243737       -3.2635513873       -0.0025174849
 O         -2.0530223170        0.7947949100        1.9523008248
