  62
        -98.93102128
 C         -2.4298485923       -0.9236543602        0.0692306271
 C         -2.8387892915        0.2101486795        0.8166715835
 C         -3.9892624705        0.9638918922        0.2995582343
 C         -4.5724576008        0.5578908660       -0.8426632129
 C         -5.7975458797        1.1671267028       -1.4632159325
 C         -7.0579082060        0.7079032250       -0.7026423872
 C         -7.7980320300        1.8293776463        0.0266942964
 H         -8.3517572813        2.4228001681       -0.7039232329
 H         -8.5272941323        1.3615716597        0.6915764450
 C         -6.9231952956        2.7871969581        0.8411050478
 H         -6.4574449397        3.5150695176        0.1751334743
 H         -7.5921037157        3.3488162729        1.4967219562
 C         -5.8293083202        2.1342156860        1.6959944517
 H         -5.7746317960        2.6707251346        2.6454748002
 H         -6.0888372788        1.1015070331        1.9301694444
 C         -4.4201325906        2.1774564434        1.0759274578
 H         -4.3255251829        3.0664204344        0.4461215852
 H         -3.6861253571        2.2671061581        1.8822206288
 H         -7.7527139799        0.2376309805       -1.4001262950
 H         -6.7637776700       -0.0619670206        0.0139129502
 H         -5.7155620912        2.2516769776       -1.4495185250
 H         -5.8366402345        0.8323683857       -2.4999524724
 O         -4.1472137550       -0.5258459221       -1.5388287264
 C         -3.0675060103       -1.2935995453       -1.1154583874
 O         -2.8046315441       -2.2429984455       -1.8743539641
 O         -2.2638949738        0.5710740579        1.8797592237
 C         -1.2476255088       -1.7021958268        0.6183534292
 C          0.0462275343       -1.1740315132        0.0529950750
 C          0.2439506848       -1.0635335542       -1.3200615171
 C          1.4402225357       -0.5797223842       -1.8170888447
 C          2.4567284088       -0.1892474277       -0.9622486517
 C          2.2689594736       -0.2913344349        0.4092364346
 C          1.0685252288       -0.7857162066        0.9057795234
 H          0.9210387879       -0.8526206461        1.9753734645
 N          3.2826268294        0.1264842799        1.2835307409
 S          4.8718119429       -0.3120394883        0.9812988677
 O          4.9486788554       -1.5802752216        0.2947225900
 O          5.5301412018       -0.2362298137        2.2668545141
 C          5.4858017430        0.9912870416       -0.0644225332
 C          5.3236182411        2.2966118832        0.3566961597
 C          5.8068447690        3.3215431127       -0.4407778691
 C          6.4438178207        3.0257333341       -1.6368774434
 C          6.6021008500        1.7099079683       -2.0437758722
 C          6.1196804403        0.6798655066       -1.2512515655
 H          6.2146188467       -0.3573726646       -1.5309758341
 H          7.0976989497        1.4821269953       -2.9738319002
 H          6.8186991624        3.8256591421       -2.2556923750
 H          5.6848070679        4.3461177810       -0.1281164202
 H          4.8246810652        2.4855634941        1.2925931058
 H          3.0519245693        0.0360283035        2.2619817819
 H          3.3886694941        0.1896724216       -1.3485065644
 H          1.5825725862       -0.5020203114       -2.8843831152
 H         -0.5482180128       -1.3647177075       -1.9889856977
 H         -1.2474017257       -1.4790787980        1.6973718739
 C         -1.3927238146       -3.2104156586        0.4732660346
 C         -0.5474237400       -4.0490838007       -0.4326104932
 C         -0.3476970598       -4.1200258004        1.0497434575
 H         -0.6639396644       -5.0070532145        1.5773851376
 H          0.5435140534       -3.6607932533        1.4520734153
 H         -1.0256279084       -4.8754802246       -0.9356392059
 H          0.2118554187       -3.5628792335       -1.0242971797
 H         -2.4245386295       -3.5271319495        0.5869519718
