  62
        -98.94751685
 C          0.7431972114        1.2795880281        0.0818100165
 C          1.4338310850        0.5236935027        1.0577061423
 C          2.3849429870       -0.4698733589        0.5426978731
 C          2.4885217163       -0.6533754710       -0.7861032839
 C          3.4817894301       -1.5611874278       -1.4503179872
 C          4.7771559343       -0.8059339000       -1.7824494297
 C          5.3425716826       -0.0021844016       -0.6111750586
 H          4.6519053105        0.8084589299       -0.3675962265
 H          6.2713612905        0.4601437057       -0.9525580506
 C          5.6185056665       -0.8283545475        0.6530263490
 H          6.5964927955       -0.5462549437        1.0487261004
 H          5.6654782674       -1.8881641127        0.4005451313
 C          4.6061176872       -0.6204856965        1.7813056816
 H          4.4903692844        0.4485907489        1.9773703571
 H          5.0100529851       -1.0766728634        2.6891379060
 C          3.2142708512       -1.2215541647        1.5449974041
 H          2.6641574459       -1.1703451615        2.4891577896
 H          3.3140397104       -2.2695951415        1.2581729335
 H          4.5750010142       -0.1150023050       -2.6040278883
 H          5.5213525855       -1.5287586483       -2.1216569552
 H          3.0438088822       -1.9338620766       -2.3770351175
 H          3.7013550990       -2.3991613237       -0.7926361274
 O          1.7354263167        0.0243691383       -1.6887767575
 C          0.8709095400        1.0299436068       -1.2847100452
 O          0.2849201734        1.6101955777       -2.2175680809
 O          1.2744194591        0.6832674944        2.2989254263
 C         -0.1799646240        2.3976908355        0.5286861843
 C         -1.5626866297        2.2109617063       -0.0427555180
 C         -2.3078021092        3.2442187124       -0.5958596805
 C         -3.5702823115        2.9988994906       -1.1072697880
 C         -4.1162132045        1.7296429004       -1.0720695796
 C         -3.3813559968        0.6895656761       -0.5126677884
 C         -2.1201503767        0.9395050777        0.0014180517
 H         -1.5538605459        0.1326158868        0.4441729320
 N         -3.8860325033       -0.6164063419       -0.4974984182
 S         -3.4158428013       -1.7220058258        0.6540906452
 O         -4.3756973286       -2.7986921476        0.5249902072
 O         -3.3209980903       -1.1263630659        1.9670664005
 C         -1.8242917021       -2.3145222236        0.1214349546
 C         -1.5648119477       -2.4496860055       -1.2275509103
 C         -0.3492155648       -2.9835867136       -1.6233802827
 C          0.5747084162       -3.3831946111       -0.6706559738
 C          0.3010890237       -3.2362903409        0.6798048823
 C         -0.9084319793       -2.6945932583        1.0820739708
 H         -1.1550096224       -2.5497927671        2.1221818570
 H          1.0215324353       -3.5393602997        1.4221689112
 H          1.5127862981       -3.8129489276       -0.9830168599
 H         -0.1278651619       -3.0871800202       -2.6735325306
 H         -2.3041516287       -2.1307945155       -1.9435727415
 H         -4.8431404557       -0.7286927571       -0.7949101846
 H         -5.0977513454        1.5386625899       -1.4780295514
 H         -4.1373737268        3.8087609555       -1.5406201933
 H         -1.8989673919        4.2404530933       -0.6340867560
 H         -0.2480227884        2.3052613110        1.6236076028
 C          0.4365863112        3.7402224534        0.1902937587
 C          0.1697733487        4.9382198523        1.0504301862
 C          1.5169478446        4.2828086804        1.0753749350
 H          2.3507563081        4.7950328553        0.6189804848
 H          1.7861067913        3.6965752640        1.9420650393
 H          0.0808537179        5.9044443122        0.5770477177
 H         -0.4734561540        4.8050504379        1.9072271351
 H          0.5438531688        3.8885798818       -0.8787780559
