  62
        -98.93531034
 C         -1.9975173938       -0.9731426665       -0.1568598088
 C         -2.3575030404       -0.2278678787        0.9927551595
 C         -2.5373113215        1.2224848253        0.8260036437
 C         -2.3215048703        1.7662575400       -0.3837325733
 C         -2.4683944301        3.2091505620       -0.7829577582
 C         -3.8736338689        3.4839347057       -1.3450954875
 C         -4.9280064015        3.8422764406       -0.2983907481
 H         -4.7209944410        4.8411967074        0.0908436131
 H         -5.8921963408        3.8821634116       -0.8100806660
 C         -5.0360662000        2.8708382065        0.8796536254
 H         -6.0195528084        3.0034513563        1.3343155861
 H         -4.9830673199        1.8436176905        0.5146409519
 C         -3.9589004313        3.0983041184        1.9507482847
 H         -4.4344095951        3.1868288653        2.9297415699
 H         -3.4613124363        4.0490594181        1.7610002965
 C         -2.9100141850        1.9831948097        2.0693413939
 H         -1.9936890742        2.3946037314        2.5070430815
 H         -3.2680442056        1.2168061750        2.7643641832
 H         -3.8094546027        4.3090109382       -2.0573921086
 H         -4.1896817202        2.5967804312       -1.8998198525
 H         -2.2422463669        3.8630281099        0.0542773295
 H         -1.7337248707        3.3846474933       -1.5721957945
 O         -1.9746808893        1.0191554537       -1.4660345941
 C         -1.7815248576       -0.3515538532       -1.3873314765
 O         -1.4415514932       -0.8661573804       -2.4710038499
 H          0.5018264555       -1.1232603555       -0.7408441004
 C          0.7133349471       -1.9144868896       -0.0373089816
 C         -0.3114560987       -2.7044285987        0.4588388669
 C          0.0080113865       -3.7256898666        1.3476070753
 C          1.3176288079       -3.9356917743        1.7388937025
 C          2.3308327616       -3.1150334726        1.2762457485
 C          2.0225806371       -2.0959923570        0.3830749234
 N          3.0149083543       -1.2337358791       -0.1107932372
 S          2.5954548443        0.3930745843       -0.3118018029
 O          1.7297049847        0.8175955861        0.7658054706
 O          2.1035878330        0.5889612054       -1.6522437683
 C          4.1991088237        1.1590924083       -0.1502414536
 C          4.6025478637        1.6239571217        1.0873971311
 C          5.8628318362        2.1870103022        1.2139381241
 C          6.6954029981        2.2712666887        0.1079517004
 C          6.2765442424        1.8007596465       -1.1277722417
 C          5.0170853721        1.2379308079       -1.2615402758
 H          4.6427630599        0.8673952409       -2.2016787926
 H          6.9247230944        1.8705269342       -1.9863097713
 H          7.6756147887        2.7095057705        0.2089977861
 H          6.1892843988        2.5568026603        2.1725101091
 H          3.9166871602        1.5450898386        1.9157780035
 H          3.9010510741       -1.3364165567        0.3654279153
 H          3.3493189950       -3.2583471449        1.6034058084
 H          1.5501960146       -4.7311016826        2.4303280152
 H         -0.7810786436       -4.3449723930        1.7461444871
 C         -1.7486489395       -2.4541302709        0.0562942743
 H         -2.3795620084       -2.7379127891        0.9113474549
 C         -2.1199114983       -3.3301509909       -1.1239535372
 C         -2.5869711827       -4.7345250830       -0.8902001282
 C         -3.5566412831       -3.6893583884       -1.3513868668
 H         -3.9206923506       -3.7244551046       -2.3668229316
 H         -4.2803794485       -3.3163072384       -0.6412807539
 H         -2.2823598641       -5.4978442971       -1.5892512121
 H         -2.6673741740       -5.0772784958        0.1298545113
 H         -1.5138364482       -3.1391773695       -2.0003217503
 O         -2.5343359072       -0.7638343971        2.1222177064
