  62
        -98.93872239
 C         -2.6990000057       -0.1136513701       -0.2576887789
 C         -2.2775209586       -0.9052468406        0.8400740615
 C         -1.9005273639       -2.2909337596        0.5182283064
 C         -1.9438217863       -2.7275472530       -0.7521701483
 C         -1.6401530668       -4.1236871861       -1.2260258057
 C         -0.1483405021       -4.4087132697       -1.4419688871
 C          0.6729636832       -4.5657612172       -0.1620894136
 H          0.1824511866       -5.2794666504        0.5009831875
 H          1.6360664290       -4.9927180632       -0.4485313907
 C          0.9239795831       -3.2505989122        0.5875585035
 H          0.7512077900       -2.4030698047       -0.0801732810
 H          1.9730106242       -3.1937199459        0.8903638685
 C          0.0873765851       -3.0570019181        1.8523995579
 H          0.3117103946       -2.0611482370        2.2449590722
 H          0.3830554436       -3.7926678788        2.6050602152
 C         -1.4282174976       -3.1637992616        1.6419810787
 H         -1.7083792923       -4.2017250916        1.4585826816
 H         -1.9225103157       -2.8221734080        2.5553893157
 H         -0.0735305601       -5.3360366822       -2.0150188408
 H          0.2769246709       -3.6041475990       -2.0465806798
 H         -2.0502643565       -4.8450991716       -0.5180768868
 H         -2.1554239383       -4.2419773204       -2.1818201264
 O         -2.3248165003       -1.9272618746       -1.7837990702
 C         -2.6815680822       -0.6092557782       -1.5638113834
 O         -2.9901324261        0.0157836842       -2.6000604774
 O         -2.2329572712       -0.5102235859        2.0338258305
 C         -3.1015408062        1.3486209067       -0.1428624434
 C         -1.9093872220        2.2297776403       -0.4206478419
 C         -2.0204033919        3.3833136228       -1.1865064081
 C         -0.9105451936        4.1714059388       -1.4423638749
 C          0.3366460966        3.8055528987       -0.9702052957
 C          0.4587056115        2.6465082456       -0.2125668408
 C         -0.6607138221        1.8872012671        0.0809860870
 H         -0.5490884807        1.0035088796        0.6923025237
 N          1.7437587493        2.2045158766        0.1987266574
 S          1.9815652894        0.5516739952        0.3539762794
 O          1.3194920251       -0.0986069629       -0.7490775693
 O          1.6716382000        0.0949877539        1.6925765493
 C          3.7472828491        0.4839651450        0.1108758248
 C          4.5839658212        0.1765343719        1.1655671541
 C          5.9539221303        0.1564935145        0.9526768123
 C          6.4610772561        0.4458880145       -0.3045401312
 C          5.6083124247        0.7521852516       -1.3551201260
 C          4.2387145610        0.7724204068       -1.1479979779
 H          3.5365160554        0.9981145500       -1.9339316880
 H          6.0056508004        0.9752053352       -2.3322380451
 H          7.5270819279        0.4309569849       -0.4680318193
 H          6.6182664158       -0.0839327435        1.7670786074
 H          4.1435489476       -0.0456775057        2.1243543953
 H          2.1474938236        2.7229139612        0.9650878007
 H          1.2115510157        4.3959196212       -1.1891386977
 H         -1.0158117736        5.0673217933       -2.0348821449
 H         -2.9820170050        3.6515673400       -1.5993204161
 H         -3.8287049021        1.5194548206       -0.9540199324
 C         -3.7938676295        1.6913852833        1.1682765630
 C         -3.1252862797        2.4524963161        2.2692482888
 C         -4.2043419793        3.1043726500        1.4613283996
 H         -5.1647877639        3.2740724958        1.9235406152
 H         -3.9080133690        3.8682301340        0.7590070940
 H         -3.3347174382        2.1516327220        3.2841435344
 H         -2.1053015926        2.7703428992        2.1158572964
 H         -4.4822763844        0.9110207200        1.4747474871
