  62
        -98.93788449
 C          2.2270060806        0.8595141061       -0.0454132018
 C          3.2579136686        0.7917380060        0.9247234412
 C          4.2015872085       -0.3275570273        0.7966729438
 C          4.0163976659       -1.2294794016       -0.1843482409
 C          4.9316650884       -2.3801307296       -0.4930072206
 C          6.1765940596       -1.8725093130       -1.2488569119
 C          7.4888830348       -2.0263210713       -0.4795123006
 H          7.7954372921       -3.0740634202       -0.5072064604
 H          8.2477314425       -1.4470270024       -1.0098429570
 C          7.4599744845       -1.5857906317        0.9872940169
 H          7.0052152959       -2.3682889464        1.5965419864
 H          8.4987179734       -1.5015337420        1.3136809671
 C          6.7441464293       -0.2601690911        1.2767916038
 H          7.3131369682        0.2727003809        2.0412638030
 H          6.7337692459        0.3732215804        0.3895605018
 C          5.3077626507       -0.4111336795        1.8119971194
 H          5.2219025590       -1.3478805056        2.3694738059
 H          5.1074213547        0.4062928543        2.5107955385
 H          6.2703536950       -2.4075854615       -2.1950866278
 H          6.0200943023       -0.8207351825       -1.4975869243
 H          5.2201356844       -2.8784553571        0.4298393898
 H          4.3723793977       -3.0839267246       -1.1098615463
 O          2.9956305972       -1.1501212480       -1.0766279188
 C          2.0789468601       -0.1089428927       -1.0376427760
 O          1.2105109370       -0.1659643581       -1.9300176795
 O          3.3836592642        1.6330137238        1.8541754747
 C          1.2355950465        2.0083482608        0.0450448139
 C         -0.1087075296        1.4484414076        0.4378248195
 C         -0.3491250534        1.1373347546        1.7736801933
 C         -1.5484815807        0.5710313473        2.1609279845
 C         -2.5308825183        0.2950153046        1.2250450688
 C         -2.2923995374        0.5823156866       -0.1114613854
 C         -1.0940246371        1.1709168622       -0.4958080205
 H         -0.9183952584        1.3779959788       -1.5394083447
 N         -3.2773282137        0.3020211405       -1.0726045118
 S         -4.0910996562       -1.1625735563       -0.9995197971
 O         -3.2845344958       -2.2036776012       -0.4055537705
 O         -4.5600093883       -1.4004367555       -2.3475298693
 C         -5.4940047482       -0.8054434083        0.0401488739
 C         -6.2732693412        0.2915911943       -0.2716158694
 C         -7.3740115678        0.5776189154        0.5199111741
 C         -7.6780974801       -0.2352332082        1.6018109331
 C         -6.8887173087       -1.3353322330        1.8993483864
 C         -5.7852349652       -1.6261646192        1.1120178104
 H         -5.1395094254       -2.4672629788        1.3093230905
 H         -7.1265844633       -1.9668430017        2.7402435792
 H         -8.5352470554       -0.0102567086        2.2166022039
 H         -7.9898685143        1.4325378568        0.2916390708
 H         -6.0046048076        0.8963107526       -1.1214551219
 H         -2.9842014066        0.5022943992       -2.0181070627
 H         -3.4641973014       -0.1569040901        1.5183463008
 H         -1.7224968532        0.3394437212        3.2007766598
 H          0.4252242738        1.3351832762        2.5017850553
 H          1.5967667497        2.6362701378        0.8705743280
 C          1.2091402754        2.8373387864       -1.2217738815
 C          0.5584093217        4.1872494986       -1.1992508557
 C          2.0488387319        4.0752805663       -1.3043946681
 H          2.5199891784        4.3148734885       -2.2459613857
 H          2.6440303824        4.3333773447       -0.4408676107
 H          0.0040345214        4.5079973562       -2.0679199150
 H          0.1398550431        4.5198076972       -0.2615678250
 H          1.1175053978        2.2429114339       -2.1229558954
