  62
        -98.94133965
 C          1.8066918800        0.9728578096        0.7071589002
 C          2.0360861199       -0.4187781904        0.8791384003
 C          3.4135270798       -0.8870965606        0.6849524102
 C          4.3708278399        0.0066710993        0.3780563898
 C          5.8093789498       -0.3298754009        0.1143635796
 C          6.0554461995       -0.5944501712       -1.3774674304
 C          5.0564200692       -1.5669803112       -2.0043437200
 H          4.0645582393       -1.1089086811       -2.0034533399
 H          5.3462751490       -1.7024399214       -3.0486445801
 C          4.9829728392       -2.9352052511       -1.3120796498
 H          4.9804280490       -3.7143652812       -2.0772297097
 H          5.8714133693       -3.0877939411       -0.6982156099
 C          3.7327306993       -3.1472681108       -0.4561400295
 H          3.6737006593       -4.2082571207       -0.1993504693
 H          2.8425796993       -2.9014814108       -1.0406800394
 C          3.6803162497       -2.3560011906        0.8569200904
 H          2.8445580397       -2.7443853904        1.4459949706
 H          4.6021289298       -2.5162562506        1.4199387402
 H          7.0686192594       -0.9828083514       -1.4966072305
 H          5.9906122695        0.3555433687       -1.9129970705
 H          6.0846168098       -1.2051493809        0.6996605597
 H          6.4233249599        0.5151854290        0.4304770693
 O          4.1193132600        1.3298842693        0.2284474896
 C          2.8387857801        1.8480640295        0.3680003998
 O          2.7825819502        3.0775951294        0.1670903596
 O          1.1252698899       -1.2314822602        1.1916502807
 C          0.3796548401        1.4462678598        0.9162238403
 C         -0.3770078701        1.5821731397       -0.3836480595
 C          0.0472564798        2.4414766995       -1.3915718998
 C         -0.6889561304        2.5671620394       -2.5553065896
 C         -1.8679858905        1.8623756695       -2.7261404693
 C         -2.3012770804        1.0029650497       -1.7239404891
 C         -1.5452114802        0.8578955698       -0.5692918992
 H         -1.8768323502        0.1749303200        0.1976706210
 N         -3.4862172905        0.2678690098       -1.8641198787
 S         -4.4864132103        0.0360434601       -0.5411873385
 O         -5.7863309705       -0.2366134798       -1.1161849382
 O         -4.4179803700        1.1475690603        0.3779757213
 C         -3.8735041903       -1.4464289398        0.2289110716
 C         -3.6070501301       -1.4530536196        1.5834274816
 C         -3.1489019701       -2.6210967395        2.1716390617
 C         -2.9674078904       -3.7567683697        1.3981982819
 C         -3.2432030506       -3.7350440099        0.0393857819
 C         -3.7023378606       -2.5705798200       -0.5541469482
 H         -3.9291496408       -2.5159384601       -1.6058189782
 H         -3.0989033109       -4.6210321100       -0.5578130080
 H         -2.6067386104       -4.6631824697        1.8582606720
 H         -2.9307572299       -2.6387097794        3.2275025017
 H         -3.7553655799       -0.5451155995        2.1473303715
 H         -4.0106821207        0.4592186797       -2.7052203387
 H         -2.4488366107        1.9756939394       -3.6290469492
 H         -0.3488006005        3.2336932492       -3.3336884598
 H          0.9567266099        3.0057840694       -1.2531425300
 H         -0.1041919699        0.6442214100        1.4906225306
 C          0.2637179804        2.7346363600        1.7096439001
 C         -1.0726731794        3.1109344602        2.2741887303
 C          0.0310177107        2.6708973703        3.1876924202
 H          0.5055559309        3.4096972503        3.8160291400
 H         -0.0412710093        1.6931875503        3.6413551404
 H         -1.3541780093        4.1530017703        2.2739363002
 H         -1.9006075295        2.4389404803        2.0994144606
 H          0.8935228004        3.5304458198        1.3343184999
