  62
        -98.93896099
 C          1.8290828380        0.8817883657        0.4278015480
 C          2.4634666773        0.2840327427       -0.6854857628
 C          3.5496633112       -0.6690692236       -0.3883464940
 C          3.8626686285       -0.9401509942        0.8923934778
 C          4.8807062652       -1.8884512760        1.4912668333
 C          5.9921761949       -2.4863464913        0.6326940802
 C          7.0251427230       -1.4784952225        0.1298744064
 H          7.6083060562       -1.1234856789        0.9833571527
 H          7.7078203584       -1.9986459268       -0.5456217729
 C          6.4586619324       -0.2530071772       -0.5828611921
 H          5.8557581485        0.3314952303        0.1151092625
 H          7.3003660355        0.3758672530       -0.8853171247
 C          5.6278241423       -0.5477940690       -1.8303405061
 H          6.2061299078       -1.1654637445       -2.5201539284
 H          5.4265492331        0.4064359805       -2.3244666809
 C          4.2726919266       -1.2316400740       -1.5778422908
 H          3.6307856915       -1.0411845935       -2.4431214779
 H          4.3834043746       -2.3096598763       -1.4866322688
 H          6.5167618552       -3.2090597625        1.2637561073
 H          5.5684157759       -3.0440820475       -0.1973132272
 H          5.3293336389       -1.3496457493        2.3319721642
 H          4.3013287141       -2.7102488069        1.9271001744
 O          3.1895887014       -0.3677388295        1.9346877026
 C          2.1725677728        0.5489203454        1.7356229313
 O          1.6539431695        0.9794014083        2.7865328571
 H         -0.3945375192       -0.4561135613        0.7797550545
 C         -0.8845386098        0.0047667426       -0.0696688292
 C         -0.4355412992        1.2413546560       -0.5180451579
 C         -1.0844424293        1.8290243278       -1.5954779364
 C         -2.1302242408        1.1754819005       -2.2257236215
 C         -2.5577500339       -0.0653854686       -1.7923141724
 C         -1.9295615619       -0.6519927726       -0.7001989714
 N         -2.3674017761       -1.9034131733       -0.2363637572
 S         -4.0145167994       -2.1705538559       -0.1196347321
 O         -4.1644346825       -3.1519063116        0.9321875717
 O         -4.5377397608       -2.5484031864       -1.4089458629
 C         -4.7147730155       -0.6060743357        0.3770211757
 C         -5.6603761792        0.0078508046       -0.4186559184
 C         -6.1717302737        1.2348407421       -0.0271077077
 C         -5.7274634591        1.8253248177        1.1454881951
 C         -4.7792725801        1.1941750347        1.9362595261
 C         -4.2666852392       -0.0337487607        1.5511257796
 H         -3.5307158238       -0.5496185283        2.1473168660
 H         -4.4335023094        1.6541264326        2.8481518030
 H         -6.1217128456        2.7826704939        1.4475317950
 H         -6.9105622542        1.7268609920       -0.6387024882
 H         -5.9737266941       -0.4851514524       -1.3244347772
 H         -1.8798721027       -2.2335034287        0.5829077018
 H         -3.3567098223       -0.5947951207       -2.2855309036
 H         -2.6166456999        1.6379564857       -3.0707287769
 H         -0.7648316474        2.7945574485       -1.9506867501
 C          0.7125557088        1.8886062538        0.2189321272
 H          0.3585283242        2.1591885350        1.2246672076
 C          1.2472867732        3.1320296042       -0.4600697586
 C          0.6112580475        4.4644895722       -0.2054539119
 C          1.9603117602        4.1561185528        0.3691800441
 H          2.8266581864        4.6464294883       -0.0489173581
 H          2.0363348036        3.9689560491        1.4308120091
 H          0.5529275152        5.1722820220       -1.0184449794
 H         -0.2301115295        4.4963670580        0.4699301085
 H          1.6396234504        2.9293483995       -1.4497513146
 O          2.1388640734        0.5255026849       -1.8766664381
