  62
        -98.93667584
 C         -1.3432644478       -1.5239199702        0.3062778870
 C         -1.8839890188       -1.0289163020       -0.9038239861
 C         -2.8564723672        0.0763426552       -0.7833672212
 C         -3.1759919950        0.5339292080        0.4411709759
 C         -4.0901741125        1.6846535608        0.7573123289
 C         -3.4083225949        3.0559067185        0.5585422026
 C         -2.3527585605        3.1058859084       -0.5469874053
 H         -1.7831852358        4.0316424115       -0.4294322072
 H         -1.6513047965        2.2799786654       -0.4093925001
 C         -2.9052661961        3.0825392377       -1.9724980862
 H         -2.0617279966        2.9814439237       -2.6605984955
 H         -3.3854808266        4.0428611478       -2.1772934851
 C         -3.9222973673        1.9841959700       -2.2740643404
 H         -4.2071444029        2.0812422775       -3.3261515326
 H         -4.8248280384        2.1496897492       -1.6914212441
 C         -3.4195923907        0.5511500456       -2.0996892551
 H         -4.2383723123       -0.1314690592       -2.3600067695
 H         -2.6293491778        0.3600027717       -2.8343874657
 H         -4.1750948971        3.8065307264        0.3632574278
 H         -2.9135858820        3.3187479035        1.4953057348
 H         -4.9915102455        1.5986911950        0.1557313887
 H         -4.3789845258        1.5863066304        1.8053584735
 O         -2.6421299573        0.0186374329        1.5812384751
 C         -1.7300739919       -1.0191294806        1.5484021995
 O         -1.3428884998       -1.4029778096        2.6691412430
 H          0.4621614877       -0.1933488461       -0.6792811643
 C          1.2557888156       -0.9277786404       -0.7111848183
 C          1.0198822422       -2.2176056989       -0.2629999624
 C          2.0710677052       -3.1297660549       -0.3139459379
 C          3.3152947346       -2.7569657088       -0.7886225968
 C          3.5425386021       -1.4662942923       -1.2360207921
 C          2.4982339391       -0.5565421358       -1.2071738266
 N          2.7297923826        0.7744445876       -1.6425647812
 S          3.4199569019        1.7415785459       -0.4600141096
 O          3.4765303669        3.0760108291       -1.0107544122
 O          4.6737048455        1.1500356265       -0.0711998167
 C          2.2596443940        1.6855661020        0.8930438079
 C          2.3073204605        0.6205483873        1.7711525671
 C          1.3363243129        0.5208984355        2.7545101153
 C          0.3404697488        1.4811659044        2.8423769821
 C          0.3095503602        2.5463961453        1.9560712991
 C          1.2714232867        2.6466149573        0.9638028411
 H          1.2791040210        3.4558182836        0.2507131421
 H         -0.4647353419        3.2931176479        2.0299239906
 H         -0.4222419050        1.3826523140        3.5987941339
 H          1.3380938709       -0.3141610105        3.4362046548
 H          3.0989144805       -0.1050866165        1.6737272045
 H          1.8887238505        1.2264298317       -1.9751597377
 H          4.5080383834       -1.1485783094       -1.5934963978
 H          4.1186312095       -3.4771653757       -0.8099856305
 H          1.9087262854       -4.1390479673        0.0296378033
 C         -0.3147402476       -2.6341349150        0.3148746130
 H         -0.1507633838       -2.8786681045        1.3748990706
 C         -0.8430205154       -3.8750129296       -0.3865370150
 C         -0.5845120175       -5.2404272537        0.1728520227
 C         -1.9581571121       -4.6474639714        0.2502652844
 H         -2.7368420652       -5.0469196658       -0.3817677546
 H         -2.3107283281       -4.3033799380        1.2122468843
 H         -0.0245797510       -5.3140632005        1.0932491255
 H         -0.4148174842       -6.0543607449       -0.5155647188
 H         -0.8713569603       -3.7640325639       -1.4638162804
 O         -1.5606620055       -1.4637245641       -2.0412493535
