  62
        -98.94122462
 C         -1.5372590942       -1.6199631278       -0.2183526332
 C         -2.6766620140       -1.2565745416        0.5434003363
 C         -3.4774733746       -0.1308047722        0.0399474849
 C         -3.1016265575        0.4959868529       -1.0900485812
 C         -3.7575715560        1.6380373237       -1.8347418092
 C         -4.6324097966        2.6449025086       -1.0885376369
 C         -3.9352010429        3.4092308791        0.0342096640
 H         -4.6670984950        4.0900333280        0.4751728530
 H         -3.1345335547        4.0160459912       -0.3959371161
 C         -3.3334692950        2.5486963421        1.1446544470
 H         -2.9963254855        3.2189028147        1.9399282006
 H         -2.4506398113        2.0243360732        0.7734861616
 C         -4.2840205996        1.5280303246        1.7717390565
 H         -5.2102625628        2.0215418118        2.0713524173
 H         -3.7998401546        1.1488497028        2.6750939379
 C         -4.6315477829        0.3099020334        0.8910955332
 H         -5.5060531209        0.4994014894        0.2720887823
 H         -4.8708334326       -0.5286696174        1.5506989803
 H         -5.5258882914        2.1611375738       -0.7046062602
 H         -4.9621655487        3.3756937499       -1.8322001240
 H         -4.3602978374        1.1839491224       -2.6293470594
 H         -2.9429796869        2.1733910052       -2.3318294985
 O         -2.0079834893        0.1000906443       -1.8003420838
 C         -1.1914507662       -0.9410330421       -1.3849208617
 O         -0.2207222685       -1.1427581231       -2.1402229542
 O         -3.0139296206       -1.8522714519        1.6000890932
 C         -0.6488884065       -2.7296191004        0.3228735510
 C          0.6032838902       -2.0675126955        0.8413197182
 C          0.6351024271       -1.5693696028        2.1408635502
 C          1.7262929456       -0.8529473762        2.5972687125
 C          2.7963364991       -0.5924980252        1.7585587970
 C          2.7655606941       -1.0750438241        0.4571100997
 C          1.6903724285       -1.8315718887        0.0136005245
 H          1.6789365552       -2.1895825063       -1.0033773790
 N          3.8135602771       -0.7510415919       -0.4256967459
 S          4.2333004790        0.8696586863       -0.4856088837
 O          4.6798775907        1.1066550613       -1.8409283384
 O          5.2065453877        1.1440882459        0.5437299844
 C          2.7418765096        1.7946894524       -0.1462937411
 C          1.6131820512        1.5548476508       -0.9045817015
 C          0.4637963755        2.2817903424       -0.6391360501
 C          0.4586804184        3.2312378136        0.3704036254
 C          1.6012790053        3.4622594246        1.1203785470
 C          2.7535073634        2.7379993519        0.8617411332
 H          3.6621543217        2.8808931538        1.4238238194
 H          1.5955460727        4.2007476263        1.9057135355
 H         -0.4412010197        3.7907795433        0.5728154920
 H         -0.4230366066        2.0893731666       -1.2225312195
 H          1.6196643065        0.8045380336       -1.6800883023
 H          3.6680084847       -1.1097222690       -1.3589728017
 H          3.6463592761       -0.0156190602        2.0858255053
 H          1.7394143858       -0.4798824991        3.6098543254
 H         -0.2176238510       -1.7348549058        2.7838413765
 H         -1.1954099771       -3.1520652682        1.1759358492
 C         -0.3934894091       -3.8287730483       -0.6857074397
 C          0.1954261744       -5.1245492142       -0.2163565986
 C         -1.2376313177       -5.0660039688       -0.6499299016
 H         -1.5135547902       -5.5277891102       -1.5861406688
 H         -2.0039573888       -5.1274474152        0.1087589995
 H          0.9060724793       -5.6295971345       -0.8525964469
 H          0.4026699912       -5.2231049899        0.8384865114
 H         -0.0996826530       -3.4642235836       -1.6619920545
