  62
        -98.93923352
 C         -2.3440037101       -0.4627933976        0.5953208889
 C         -3.1515268922       -0.7421352801       -0.5350180735
 C         -4.1278443263        0.2997458709       -0.8888555818
 C         -4.1657677633        1.4537631259       -0.2003759495
 C         -5.0775445882        2.6197901355       -0.4707988539
 C         -6.4703217014        2.4848811492        0.1599498045
 C         -7.3914066524        1.4642997642       -0.5098052783
 H         -8.3944703347        1.6286764004       -0.1112917149
 H         -7.4306819071        1.6611161130       -1.5815755315
 C         -6.9973524333        0.0007262459       -0.2667968970
 H         -7.8855154534       -0.5756103420        0.0020716426
 H         -6.3111107861       -0.0547821973        0.5814818201
 C         -6.3550136493       -0.6907204461       -1.4694098353
 H         -6.0833917257       -1.7076533653       -1.1751802649
 H         -7.0803411461       -0.7583632723       -2.2831347412
 C         -5.0926356493        0.0032742434       -1.9974618639
 H         -4.5959523989       -0.6736234475       -2.6966854558
 H         -5.3590387181        0.9185515907       -2.5254047607
 H         -6.9486022182        3.4656141118        0.1051707258
 H         -6.3521196764        2.2319058282        1.2161762832
 H         -4.5898112731        3.4993586038       -0.0448594813
 H         -5.1765891403        2.7653030294       -1.5469403138
 O         -3.3316357610        1.7078168794        0.8443093389
 C         -2.4234514423        0.7564788781        1.2735641273
 O         -1.7463280278        1.1058742104        2.2631846145
 H          1.0085043518       -0.5789531491        2.2327019324
 C          1.1029045843       -0.7145659808        1.1635410831
 C          0.0101958572       -1.1600058168        0.4359784676
 C          0.1325305649       -1.2882349112       -0.9449599595
 C          1.3299317447       -0.9941680690       -1.5698276323
 C          2.4224042588       -0.5587406797       -0.8385696693
 C          2.3025871208       -0.4034617987        0.5351991416
 N          3.4028385662        0.0459149118        1.2838152531
 S          4.2699523155        1.3694700698        0.7219119300
 O          4.8892696949        1.9385203905        1.8989321567
 O          3.4430036117        2.2558274877       -0.0636873081
 C          5.5350974898        0.6424257540       -0.2999523470
 C          5.7251957972        1.1009039823       -1.5887779719
 C          6.7256997893        0.5323885532       -2.3619745543
 C          7.5144603785       -0.4787206308       -1.8351413634
 C          7.3119956753       -0.9266596757       -0.5381472536
 C          6.3149968996       -0.3613328235        0.2406004988
 H          6.1282637160       -0.6785876007        1.2528416645
 H          7.9269423023       -1.7136594617       -0.1323016107
 H          8.2912621401       -0.9202867427       -2.4391717295
 H          6.8842755931        0.8796690302       -3.3703026103
 H          5.0834452571        1.8850091134       -1.9584299212
 H          3.2120356163        0.1372353306        2.2714326166
 H          3.3544507224       -0.3203754158       -1.3243489246
 H          1.4147575085       -1.1012856901       -2.6406562085
 H         -0.7246056185       -1.6112324319       -1.5164982912
 C         -1.2993948203       -1.4302571373        1.1306610921
 H         -1.1742887228       -1.1556130595        2.1899865900
 C         -1.7425280696       -2.8862928507        1.0858088095
 C         -1.0133084593       -3.9549963668        0.3327664481
 C         -0.9470271697       -3.9202184867        1.8277104445
 H         -1.4736826970       -4.6740795305        2.3931202601
 H         -0.0195320481       -3.5981540255        2.2778232216
 H         -0.1285846776       -3.6820728117       -0.2200500452
 H         -1.6068361898       -4.7200998695       -0.1439931664
 H         -2.8214726170       -2.9860156920        1.1292631235
 O         -3.0789514038       -1.7910168879       -1.2231082337
