  62
        -98.94450742
 C         -1.7319682898       -0.7755165207        0.1173252404
 C         -2.9468335799       -1.1822493307        0.7200366202
 C         -4.1667629897       -0.8945814908       -0.0417782401
 C         -4.0768530195       -0.2966843910       -1.2437997502
 C         -5.2295783393        0.0486402488       -2.1473020505
 C         -5.9075787794        1.3834179889       -1.8085641909
 C         -6.7594770197        1.3766065791       -0.5385253311
 H         -7.3441692497        2.2986766291       -0.5404026414
 H         -7.4634135196        0.5448422990       -0.5793480011
 C         -5.9522531400        1.3071053093        0.7653647591
 H         -6.3408698801        2.0421360494        1.4739057789
 H         -4.9125511999        1.5763081593        0.5641542593
 C         -5.9866193201       -0.0544120506        1.4598177893
 H         -7.0063126002       -0.2750762805        1.7829343791
 H         -5.3554594203       -0.0009456004        2.3505484194
 C         -5.4855908599       -1.2175395407        0.5935127196
 H         -5.3395814000       -2.0873309806        1.2385637998
 H         -6.2248388997       -1.4658670209       -0.1674979305
 H         -6.5519466992        1.6447340087       -2.6511842511
 H         -5.1378741894        2.1547242089       -1.7278742209
 H         -5.9683132892       -0.7529135812       -2.1230009106
 H         -4.8221855090        0.1164745987       -3.1583299905
 O         -2.8873990493        0.0570973989       -1.8002518900
 C         -1.6896226895       -0.1508031209       -1.1287876897
 O         -0.6824472494        0.2490729090       -1.7431650495
 O         -3.0076952001       -1.7547868205        1.8408802303
 C         -0.4327393799       -1.0101525106        0.8662125408
 C          0.2340132500        0.3086638295        1.1703280807
 C         -0.5033962302        1.2945425096        1.8228022603
 C          0.0659281497        2.5125449396        2.1360211703
 C          1.3837225098        2.7758221796        1.8032590005
 C          2.1308743300        1.7996709595        1.1572646109
 C          1.5566900900        0.5720943895        0.8520163709
 H          2.1529526002       -0.1710035706        0.3514439112
 N          3.4827424500        2.0190747695        0.8499912011
 S          4.0930672504        1.5725649792       -0.6464811886
 O          5.3233169504        2.3291438492       -0.7607491785
 O          3.1303757406        1.7673760490       -1.7039112889
 C          4.5032982004       -0.1506777207       -0.4756729083
 C          4.0431118506       -1.0543234809       -1.4126759582
 C          4.4032227406       -2.3874416109       -1.2898074179
 C          5.2123088604       -2.7899243007       -0.2376572876
 C          5.6648809201       -1.8689792105        0.6953214223
 C          5.3119717001       -0.5344153505        0.5760481920
 H          5.6484917500        0.2123927196        1.2752814119
 H          6.2911710499       -2.1877265603        1.5127466725
 H          5.4881760204       -3.8285960106       -0.1443824474
 H          4.0487113708       -3.1044389210       -2.0135030479
 H          3.4040928708       -0.6983958910       -2.2061008884
 H          3.8293268299        2.9288716595        1.1193689311
 H          1.8298821897        3.7293400497        2.0426816305
 H         -0.5197440604        3.2669735297        2.6397644700
 H         -1.5336931202        1.0894881496        2.0804827701
 H         -0.7329225301       -1.4638374004        1.8229701608
 C          0.4547758503       -1.9871841507        0.1260340711
 C          1.4262197901       -2.8360797205        0.8890196715
 C          0.2032209802       -3.4557249607        0.2844967813
 H          0.3182885305       -4.0932354708       -0.5790253885
 H         -0.6015282799       -3.7523284606        0.9412675812
 H          2.3858730202       -3.0491328906        0.4434668518
 H          1.4541654898       -2.7154263604        1.9612611615
 H          0.7412304005       -1.6312574209       -0.8575974489
