  62
        -98.93435857
 C         -2.4506421880       -0.0703131911       -0.4947880503
 C         -3.4469493093        0.7216530802        0.1288122402
 C         -4.6395382808       -0.0063350767        0.5902397479
 C         -4.7122157971       -1.3417971642        0.4558752766
 C         -5.8480452603       -2.2198286887        0.9064314423
 C         -7.0089932472       -2.3015923467       -0.0942528557
 C         -7.8726148788       -1.0434530010       -0.1936573653
 H         -8.7667001680       -1.3128184548       -0.7594915975
 H         -8.1964051302       -0.7467270779        0.8044203674
 C         -7.1879810944        0.1419318000       -0.8883628420
 H         -6.3227140377       -0.2161578612       -1.4510839586
 H         -7.8763017933        0.5882181285       -1.6097279595
 C         -6.7368443748        1.2559721904        0.0563414685
 H         -7.6099314755        1.7123262530        0.5280516561
 H         -6.2337075502        2.0249986020       -0.5353808755
 C         -5.7708402137        0.7979659570        1.1567248685
 H         -5.3431278701        1.6857830143        1.6289797573
 H         -6.3060967041        0.2233188966        1.9122670058
 H         -6.6042796226       -2.5448189302       -1.0794189675
 H         -7.6483540082       -3.1312337059        0.2161818697
 H         -5.4329772401       -3.2217743214        1.0351951917
 H         -6.2206439832       -1.8718932338        1.8703160159
 O         -3.7139689371       -2.0724203685       -0.1093545814
 C         -2.5810509525       -1.4570032050       -0.6120047051
 O         -1.7662008787       -2.2417423925       -1.1394111992
 H          1.3496166272       -0.4502936209       -1.2218261690
 C          1.1630617306        0.0318383162       -0.2714916166
 C         -0.0893745737        0.5711218760       -0.0177818847
 C         -0.3203662735        1.1729093721        1.2150916280
 C          0.6824009357        1.2271692068        2.1659900277
 C          1.9288239834        0.6823773788        1.9121417414
 C          2.1701792618        0.0787445267        0.6853990756
 N          3.4271723752       -0.4960041705        0.4270322325
 S          4.7927507205        0.3780078991        0.9049729283
 O          5.0156459966        0.1448674980        2.3096620371
 O          4.6560392120        1.7613993592        0.5079100162
 C          6.0631809398       -0.4249311881       -0.0511394797
 C          6.4703343040        0.1388357525       -1.2453959612
 C          7.4439765620       -0.5053480509       -1.9924940527
 C          7.9879666864       -1.6967121759       -1.5365571270
 C          7.5683280176       -2.2503313218       -0.3359187718
 C          6.5962425688       -1.6110474751        0.4167838638
 H          6.2459982046       -1.9986389703        1.3591547433
 H          7.9955146696       -3.1755716735        0.0156766554
 H          8.7460649381       -2.1955070230       -2.1194709759
 H          7.7744240913       -0.0763343225       -2.9247342028
 H          6.0266829564        1.0711861880       -1.5562380669
 H          3.5131328587       -0.8155648676       -0.5281758736
 H          2.7179688704        0.7222131671        2.6456327706
 H          0.4922909127        1.6997945920        3.1182632163
 H         -1.2894566129        1.6036986954        1.4160437942
 C         -1.1670452775        0.5055635652       -1.0700251907
 H         -0.8416234806       -0.2249748879       -1.8277897673
 C         -1.3779191600        1.8318142585       -1.7885847470
 C         -0.8689695583        3.1448879841       -1.2840109080
 C         -0.2232560331        2.5027867152       -2.4725073468
 H         -0.3786769362        2.9365195557       -3.4486735551
 H          0.7567310308        2.0717601683       -2.3298809471
 H         -0.3216644781        3.1605511419       -0.3546750749
 H         -1.4939576312        4.0120673892       -1.4327519550
 H         -2.3297143192        1.8585915154       -2.3093730471
 O         -3.3678785435        1.9636145141        0.3047220202
