  62
        -98.94533543
 C          2.1304052724        0.9015790970        0.0496002007
 C          2.8609036805        0.2609005288        1.0779529545
 C          3.5597519007       -0.9707932966        0.6945499928
 C          3.4344793405       -1.4461310549       -0.5581077389
 C          4.0561162632       -2.7086122520       -1.0911158374
 C          5.5060431081       -2.5396575170       -1.5655998612
 C          6.5391183317       -2.3691987671       -0.4510720105
 H          6.4244066981       -3.1748162286        0.2748116181
 H          7.5241698081       -2.4804256040       -0.9084201622
 C          6.4781440949       -1.0135197295        0.2664308234
 H          7.4880112258       -0.6103178444        0.3690652500
 H          5.9107770983       -0.3051481839       -0.3415684374
 C          5.8668669126       -1.0638689598        1.6666618445
 H          6.4999882579       -1.6661684401        2.3218207995
 H          5.8402627186       -0.0466559953        2.0655002614
 C          4.4408168011       -1.6283158518        1.7137176419
 H          4.0208890787       -1.4185717108        2.7006895109
 H          4.4575443311       -2.7077066976        1.5634721311
 H          5.7658578818       -3.4317666353       -2.1400694928
 H          5.5536877227       -1.6832681735       -2.2421312560
 H          4.0087810865       -3.4896317834       -0.3314445040
 H          3.4471259343       -3.0171167966       -1.9438342052
 O          2.6851165943       -0.8238661820       -1.5072209665
 C          2.0297964278        0.3696382128       -1.2363646833
 O          1.4037622944        0.8417801920       -2.2035807541
 O          2.9160537020        0.6909140737        2.2620999115
 C          1.3875969663        2.1876975107        0.3649518359
 C         -0.0904026168        1.9891604279        0.1340296185
 C         -0.8772793649        2.8549197638       -0.6129762267
 C         -2.2222342592        2.5884951751       -0.8059597771
 C         -2.8117080924        1.4657495416       -0.2554706997
 C         -2.0354510180        0.5971213962        0.5009974767
 C         -0.6906341881        0.8676009603        0.6942916889
 H         -0.0856517984        0.1850556561        1.2796748303
 N         -2.6281064747       -0.5437349322        1.0758722864
 S         -3.4469110047       -1.5886570201        0.0436800395
 O         -3.4064358326       -2.8764503219        0.7032730334
 O         -2.9165782666       -1.5369058900       -1.2992231699
 C         -5.1194647438       -0.9783874815        0.0685017559
 C         -5.7582966500       -0.8786319434        1.2891180553
 C         -7.0617376357       -0.4097712169        1.3250988265
 C         -7.7013638996       -0.0537209730        0.1468992661
 C         -7.0472960448       -0.1630694490       -1.0707176665
 C         -5.7427517145       -0.6304486523       -1.1137546797
 H         -5.1911098488       -0.7268449608       -2.0354810783
 H         -7.5458783607        0.1137328753       -1.9857411767
 H         -8.7158200560        0.3112285030        0.1776224752
 H         -7.5737204598       -0.3234156947        2.2699030431
 H         -5.2262051874       -1.1692979753        2.1794434068
 H         -1.9948924800       -1.0674536373        1.6637517434
 H         -3.8566357078        1.2517962234       -0.4100426983
 H         -2.8198021055        3.2656137831       -1.3969503951
 H         -0.4357911003        3.7321186440       -1.0562420918
 H          1.5461795935        2.3599280632        1.4401519306
 C          1.9774272293        3.3487137869       -0.4067534945
 C          1.8865707141        4.7411357501        0.1402390303
 C          3.2024792552        4.0248053206        0.1294600652
 H          3.9617375196        4.3454508051       -0.5680114124
 H          3.5976358399        3.6626018645        1.0674462417
 H          1.7441350366        5.5580314084       -0.5508376570
 H          1.3898972591        4.8731738875        1.0894062851
 H          1.9108624735        3.2110625204       -1.4801917171
