  62
        -98.93382949
 C         -2.0282826305       -0.5608494299        0.0539227298
 C         -2.7056472005        0.5978626306        0.5102457984
 C         -4.0634467605        0.8265806499       -0.0082198718
 C         -4.5836859605       -0.0459943312       -0.8878653707
 C         -5.9226518005       -0.0012405821       -1.5810542607
 C         -7.1402195505        0.4167673988       -0.7465002812
 C         -7.0994564805       -0.0245234793        0.7238285693
 H         -8.0330264204       -0.5350617591        0.9674489500
 H         -6.2881347904       -0.7380169991        0.8777398702
 C         -6.9382003605        1.1475819619        1.6947407079
 H         -7.2775979504        0.8330179331        2.6846596583
 H         -7.5886047405        1.9629993714        1.3706780769
 C         -5.5133638405        1.6772240121        1.8523685072
 H         -4.9025187204        0.9443790228        2.3865343481
 H         -5.5548476405        2.5736020429        2.4759684761
 C         -4.7857788406        2.0224330605        0.5426127467
 H         -5.4686158506        2.4520230996       -0.1864188838
 H         -4.0129312806        2.7611987109        0.7721258258
 H         -7.2584687406        1.4985349788       -0.7897164525
 H         -8.0175978305       -0.0138982518       -1.2322208606
 H         -5.8352209206        0.6645649668       -2.4447511216
 H         -6.0748293305       -1.0113648626       -1.9691227695
 O         -3.8936254105       -1.1395397517       -1.3134609894
 C         -2.6099442604       -1.4303886611       -0.8681973891
 O         -2.1333048804       -2.4658602617       -1.3658596078
 O         -2.1906273505        1.4124878716        1.3230862074
 C         -0.6336163504       -0.7906776292        0.6075929101
 C          0.4006622395       -0.1452362102       -0.2778307108
 C          0.4640968795       -0.4325501319       -1.6379178804
 C          1.4266617094        0.1586464971       -2.4358523012
 C          2.3448001094        1.0432039079       -1.8964309223
 C          2.2895236494        1.3360963995       -0.5408819027
 C          1.3220345495        0.7415618405        0.2590504281
 H          1.2747383295        0.9851780218        1.3118103278
 N          3.2435479794        2.2143066003        0.0141518862
 S          4.8414574794        1.7160150702       -0.1158520032
 O          5.5645050494        2.4693616514        0.8828358258
 O          5.2788150894        1.8759317285       -1.4785912034
 C          4.7812850895       -0.0124687393        0.3175956589
 C          4.7596079696       -0.3510717876        1.6562668993
 C          4.6099217397       -1.6824179772        2.0087805810
 C          4.4702334097       -2.6459291584        1.0212751722
 C          4.4951014396       -2.2897071501       -0.3178993583
 C          4.6518394095       -0.9605421805       -0.6773400299
 H          4.6795912795       -0.6446790218       -1.7070669003
 H          4.3857671896       -3.0416293610       -1.0826760673
 H          4.3374825297       -3.6797503881        1.2970418135
 H          4.5932032297       -1.9638970459        3.0495285113
 H          4.8723651196        0.4280640033        2.3933882284
 H          3.0414351494        2.4674989414        0.9712074559
 H          3.1071356494        1.5059050771       -2.5023064629
 H          1.4633567094       -0.0720883142       -3.4898430909
 H         -0.2470014205       -1.1276620425       -2.0582684895
 H         -0.6264743604       -0.2506553980        1.5676773694
 C         -0.3265414203       -2.2523886988        0.9054237819
 C          0.7341199897       -3.0390430096        0.2003995828
 C          0.9434160397       -2.6109222379        1.6194877623
 H          0.9065994198       -3.3549353569        2.4002542232
 H          1.6520038297       -1.8154096576        1.7968003913
 H          0.5254054697       -4.0772454099       -0.0067624059
 H          1.3120232696       -2.5494620206       -0.5672867678
 H         -1.2169954303       -2.8023368185        1.1910713226
