  62
        -98.94430369
 C          2.2288752566        1.1042528108        0.2842684040
 C          2.3649969513       -0.0005855809       -0.5908369621
 C          3.2207487060       -1.0947027642       -0.1119671772
 C          3.7822088284       -1.0303448858        1.1081052577
 C          4.6452266897       -2.0839271013        1.7473891007
 C          6.1218609357       -2.0209716521        1.3332214403
 C          6.4183638075       -2.4840003172       -0.0936774943
 H          7.5012766646       -2.5960890189       -0.1753717479
 H          5.9762662675       -3.4678188160       -0.2542480216
 C          5.9386168383       -1.5172627881       -1.1852475623
 H          6.7307040345       -1.3808106986       -1.9248009765
 H          5.7405825400       -0.5381488030       -0.7432797581
 C          4.6914728535       -1.9802471856       -1.9383250797
 H          4.9160498546       -2.8930384360       -2.4946319196
 H          4.4179983443       -1.2052486916       -2.6588213185
 C          3.4747659826       -2.2433736365       -1.0414491215
 H          2.5940390646       -2.3573842636       -1.6787461913
 H          3.6149731732       -3.1649330742       -0.4766233467
 H          6.6796954362       -2.6587894491        2.0226314914
 H          6.4778929331       -0.9968057404        1.4655777082
 H          4.2434557276       -3.0722983592        1.5214783410
 H          4.5825883676       -1.9222825334        2.8257248588
 O          3.6019837463        0.0329150074        1.9348759483
 C          2.8420262535        1.1200693260        1.5420914581
 O          2.7867878365        2.0333603290        2.3895082676
 O          1.8122982784       -0.0973235364       -1.7200895562
 C          1.3853133711        2.3295900524       -0.0411340749
 C         -0.0716058821        2.0141177396        0.2003383263
 C         -0.7406306140        2.5444625222        1.2974445458
 C         -2.0599662034        2.2099337848        1.5472162193
 C         -2.7358766316        1.3363953985        0.7138464170
 C         -2.0720009216        0.7929950134       -0.3777893186
 C         -0.7555571187        1.1433420472       -0.6360593755
 H         -0.2392051815        0.6988653754       -1.4737915386
 N         -2.7442581628       -0.1177539109       -1.2182429177
 S         -3.3537949357       -1.4966879474       -0.4721606649
 O         -2.5890255497       -1.8464374841        0.7038495543
 O         -3.4278978835       -2.4983463300       -1.5137163445
 C         -5.0072083171       -1.0245455206       -0.0083309512
 C         -5.8529411329       -0.5609144038       -0.9972173732
 C         -7.1445653769       -0.1942376007       -0.6547543756
 C         -7.5672041524       -0.2995976592        0.6622034993
 C         -6.7071888492       -0.7705542391        1.6424386614
 C         -5.4131714479       -1.1378403436        1.3067814636
 H         -4.7064394884       -1.5024018722        2.0352283671
 H         -7.0371812195       -0.8521804755        2.6656173573
 H         -8.5728557367       -0.0130551296        0.9265077659
 H         -7.8162100074        0.1727596171       -1.4139813548
 H         -5.4850737711       -0.4978187157       -2.0076233503
 H         -2.1906927946       -0.3846992028       -2.0211766642
 H         -3.7607044152        1.0646632466        0.9081750779
 H         -2.5662680024        2.6300066365        2.4029183417
 H         -0.2094690189        3.2053195680        1.9673116273
 H          1.6862417645        3.0962769089        0.6849550635
 C          1.6291432353        2.8694418750       -1.4361958224
 C          1.2368856710        4.2821773180       -1.7436983864
 C          2.6853496654        3.9112597542       -1.6425148644
 H          3.2751440719        3.8740369871       -2.5461642946
 H          3.2379617136        4.2417463048       -0.7748419261
 H          0.8294021472        4.5028450051       -2.7182169940
 H          0.8071403298        4.8658984088       -0.9437659153
 H          1.5064961012        2.1301511764       -2.2162259477
