  62
        -98.93851619
 C         -1.2458438100       -1.6317542195       -0.1683532409
 C         -1.3333855500       -0.2226840895       -0.2597912202
 C         -2.5498384500        0.3979773403        0.3024691999
 C         -3.5036283501       -0.3758841500        0.8508489595
 C         -4.8148837201       -0.0204229103        1.5204048196
 C         -5.4242835901        1.3701497597        1.3595604902
 C         -5.8895166200        1.7071090604       -0.0565272797
 H         -6.7521576100        1.0807617505       -0.2979064100
 H         -6.2219096300        2.7475020504       -0.0669947593
 C         -4.8513044099        1.5063339409       -1.1578750597
 H         -4.5959630399        0.4472564209       -1.2326336902
 H         -5.3128451899        1.7923036913       -2.1071012596
 C         -3.5661276700        2.3172229308       -1.0011827393
 H         -2.9952903599        2.2082845612       -1.9269612293
 H         -3.8125804800        3.3737292308       -0.8810089988
 C         -2.6498605200        1.8891711603        0.1585842006
 H         -1.6386050100        2.2417637404       -0.0616960692
 H         -2.9592766201        2.3427953499        1.0967810808
 H         -4.7370613702        2.1278429996        1.7237651706
 H         -6.3026328502        1.4002415594        2.0102367001
 H         -5.5354559101       -0.7682772102        1.1741973592
 H         -4.6648400702       -0.2105847408        2.5889726895
 O         -3.3720821100       -1.7335504300        0.9202785190
 C         -2.2618830000       -2.3865417198        0.4225224687
 O         -2.2988559400       -3.6268574698        0.5559013582
 H          1.6117930500       -0.3034539394       -0.2845973401
 C          1.8676441700       -1.1503895897        0.3301777796
 C          1.1115945200       -2.3119923997        0.2545315890
 C          1.4373050100       -3.3787027700        1.0856473486
 C          2.5031883499       -3.2885209704        1.9623071787
 C          3.2693513199       -2.1385471604        2.0182307092
 C          2.9444028199       -1.0613945301        1.2002477597
 N          3.6796467099        0.1271396399        1.2682387703
 S          3.8626530800        1.1344568605       -0.0518486493
 O          3.9554211101        0.3934553311       -1.2880566396
 O          5.0249934499        1.9338080104        0.2844170512
 C          2.4395742000        2.2001568305       -0.0435812389
 C          1.9656290999        2.6656425199        1.1660114513
 C          0.9080654699        3.5595421699        1.1692486416
 C          0.3510546599        3.9763617705       -0.0300934083
 C          0.8384145300        3.4981031410       -1.2355942684
 C          1.8932232300        2.6007425210       -1.2448245888
 H          2.2934812401        2.1939620914       -2.1600200489
 H          0.3950375001        3.8127093114       -2.1668574683
 H         -0.4717851201        4.6744206304       -0.0250219680
 H          0.5177546898        3.9255043195        2.1056012117
 H          2.4211412598        2.3195546096        2.0792274111
 H          4.5064300899        0.0983863197        1.8459301903
 H          4.1084504398       -2.0693784507        2.6937755193
 H          2.7457102599       -4.1242199507        2.6012967683
 H          0.8380592500       -4.2772090200        1.0459269981
 C         -0.0580983499       -2.4234449393       -0.6940845711
 H         -0.3850211299       -3.4723037993       -0.6970386216
 C          0.3293080802       -2.0431542586       -2.1092500909
 C          1.1179602703       -3.0174879783       -2.9291254113
 C         -0.3186234397       -2.7476589081       -3.2611281913
 H         -0.5467775797       -2.1802604477       -4.1509430710
 H         -1.0461707397       -3.5136412382       -3.0333583117
 H          1.8829112503       -2.6338884880       -3.5869469411
 H          1.3636290302       -3.9672262885       -2.4778151517
 H          0.5498748502       -0.9913159186       -2.2330321404
 O         -0.4531600200        0.5101932408       -0.7809816799
