  62
        -98.93946670
 C         -2.5655040942       -0.8535906249       -0.3689941593
 C         -2.7482864019        0.4505235557        0.1506309246
 C         -4.0832364141        0.7357015788        0.6919242806
 C         -5.0223509002       -0.2277337986        0.7020922854
 C         -6.4202106291       -0.0966851818        1.2434878435
 C         -7.4173255691        0.5203192149        0.2531184281
 C         -7.2500484428        2.0210181268        0.0117715126
 H         -8.1380738219        2.3595325335       -0.5257316678
 H         -7.2312664062        2.5417115016        0.9696689115
 C         -6.0057949768        2.3964994204       -0.8051188736
 H         -6.2809353174        3.1210678205       -1.5748552506
 H         -5.6272272989        1.5106455458       -1.3202324306
 C         -4.8721163012        3.0143495637        0.0135533990
 H         -4.0310693488        3.2077877359       -0.6569951323
 H         -5.1986179544        3.9704236748        0.4286928822
 C         -4.3674851402        2.1303956635        1.1617960293
 H         -3.4302330821        2.5514647787        1.5340640471
 H         -5.0930189095        2.1188865043        1.9749186694
 H         -8.4201054598        0.3474181559        0.6505821295
 H         -7.3402953144       -0.0127640396       -0.6973128973
 H         -6.7557726592       -1.1076140238        1.4848480704
 H         -6.4043592403        0.4921915075        2.1610103808
 O         -4.7939632763       -1.4800422036        0.2227009199
 C         -3.5727228521       -1.8172721705       -0.3380824896
 O         -3.5058642880       -2.9906392798       -0.7590500298
 H          1.2402110332       -0.0350699128       -1.2069480095
 C          1.0695067872       -0.4584001500       -0.2293290899
 C         -0.1307887111       -1.0917834808        0.0491687078
 C         -0.3135001082       -1.6401031913        1.3160581041
 C          0.6689981178       -1.5344067324        2.2811190753
 C          1.8579301848       -0.8815426763        2.0061901411
 C          2.0570848942       -0.3434575563        0.7430162567
 N          3.2567252904        0.3314032768        0.4557689068
 S          4.6932101992       -0.3554096801        1.0192624958
 O          4.7081489483       -1.7734559743        0.7366712171
 O          4.8675810908        0.0120955241        2.4021426627
 C          5.8925950882        0.4941884223        0.0115396923
 C          6.3166984886        1.7513467822        0.3984327409
 C          7.2290642023        2.4243713404       -0.3984288190
 C          7.6986674334        1.8333137643       -1.5620769163
 C          7.2645066068        0.5706041101       -1.9366529352
 C          6.3513432133       -0.1078274666       -1.1448730938
 H          5.9940319442       -1.0946985381       -1.3921293209
 H          7.6336757146        0.1126883269       -2.8402090640
 H          8.4097775156        2.3588363685       -2.1797097101
 H          7.5710510820        3.4051306709       -0.1096987136
 H          5.9315167793        2.1670688853        1.3148192979
 H          3.3280570499        0.5850626523       -0.5202291937
 H          2.6328396859       -0.7908631301        2.7502731901
 H          0.5093708504       -1.9627305896        3.2596818371
 H         -1.2420969482       -2.1507048335        1.5347946041
 C         -1.2301517740       -1.2444035794       -0.9748816994
 H         -1.3106687349       -2.3125542856       -1.2255602503
 C         -0.9926586662       -0.4607302182       -2.2492345836
 C         -0.1615172008       -1.0414817658       -3.3527120041
 C         -1.6469003117       -0.9259226628       -3.5140377975
 H         -2.0372798733       -0.1853456791       -4.1958436928
 H         -2.2413947678       -1.8266054123       -3.4610519429
 H          0.2557523057       -2.0254338297       -3.1997049069
 H          0.4660956500       -0.3794466194       -3.9303827028
 H         -0.9436261183        0.6082055630       -2.0754899510
 O         -1.8485239216        1.3299934937        0.1626991776
