  62
        -98.94496163
 C         -2.4438420177       -1.1637016933       -0.0705467921
 C         -3.1723128471       -0.4337654940        0.9067457357
 C         -3.7942489354        0.8155177992        0.4596976062
 C         -3.6665981427        1.1990651793       -0.8230570957
 C         -4.2467459151        2.4426373656       -1.4394304057
 C         -3.3853311856        3.6959873108       -1.2313554695
 C         -3.3955562550        4.2633960649        0.1887492361
 H         -4.4265043456        4.3943776590        0.5191523543
 H         -2.9394569513        5.2541310248        0.1396163545
 C         -2.6268197027        3.4186567248        1.2146509793
 H         -1.9977814119        4.0714925063        1.8242232449
 H         -1.9550702730        2.7314949029        0.6931565409
 C         -3.5126964054        2.6212031978        2.1723948388
 H         -4.0847500434        3.3090367058        2.7989542858
 H         -2.8638812524        2.0301169076        2.8235561490
 C         -4.4909147112        1.6623411370        1.4814567257
 H         -5.3042592715        2.2218639179        1.0202557638
 H         -4.9079751625        0.9939586224        2.2385411131
 H         -3.7600320207        4.4655417583       -1.9103687245
 H         -2.3572787810        3.4667260455       -1.5239106323
 H         -5.2474856058        2.6168379713       -1.0431821250
 H         -4.3241473675        2.2518649554       -2.5120091342
 O         -2.9856573084        0.4610986384       -1.7371289448
 C         -2.3328258448       -0.7117940339       -1.3852912881
 O         -1.7206122369       -1.2360800149       -2.3394627463
 O         -3.3000154843       -0.8167774850        2.0995759421
 C         -1.7425521569       -2.4252725176        0.4104177031
 C         -0.2943770348       -2.1010981500        0.6890967573
 C          0.1856542025       -2.0320047280        1.9918352145
 C          1.4951974280       -1.6606429420        2.2426843568
 C          2.3471315341       -1.3365094068        1.2016322259
 C          1.8729679661       -1.3948441928       -0.1019237397
 C          0.5700279927       -1.7930030362       -0.3523572829
 H          0.2059393568       -1.8143912620       -1.3690087853
 N          2.7227520896       -1.0080327040       -1.1665203695
 S          3.0171326958        0.6530859035       -1.2090802126
 O          1.9057615552        1.4007154824       -0.6623741059
 O          3.3832221192        0.9514480500       -2.5767048714
 C          4.4492887210        0.8394225579       -0.1680234777
 C          5.6269466081        0.2401417517       -0.5709448434
 C          6.7496863739        0.3657264241        0.2313973079
 C          6.6762693588        1.0854326511        1.4149881125
 C          5.4872615222        1.6836778616        1.8035082904
 C          4.3598714526        1.5609945898        1.0059540545
 H          3.4118836291        2.0025850124        1.2688812301
 H          5.4318971611        2.2429300702        2.7236046244
 H          7.5510947128        1.1811503060        2.0385427766
 H          7.6761029328       -0.0974898383       -0.0674356967
 H          5.6389181301       -0.3045177952       -1.5001782881
 H          2.3520560460       -1.2853459056       -2.0662626398
 H          3.3647441269       -1.0343317324        1.3887430701
 H          1.8534121232       -1.6133391978        3.2596505448
 H         -0.4850968013       -2.2491261785        2.8104484975
 H         -2.2217494386       -2.6722223393        1.3672206043
 C         -1.8939850796       -3.6089993472       -0.5223026188
 C         -1.6469735614       -4.9866272981        0.0132337447
 C         -3.0405900828       -4.5530263511       -0.3263132413
 H         -3.5156491629       -4.9722845744       -1.2004670926
 H         -3.7236599065       -4.3478918165        0.4849444226
 H         -1.1621798577       -5.7077913822       -0.6265264748
 H         -1.3847013124       -5.0762919177        1.0564417821
 H         -1.5938378755       -3.4017771523       -1.5410058682
