  62
        -98.94133883
 C         -2.4732746920       -1.3126404719        0.0428118564
 C         -3.0968454647       -0.5443976887        1.0611618207
 C         -3.8509054279        0.6335558777        0.6224489398
 C         -3.9247032882        0.9246541985       -0.6884782278
 C         -4.6707585159        2.0786841946       -1.3008822875
 C         -3.8871953734        3.3984890845       -1.2983823589
 C         -3.7497738644        4.0707114120        0.0682818406
 H         -3.3807756475        5.0828087366       -0.1092092812
 H         -4.7338067018        4.1580735540        0.5299949656
 C         -2.7883437113        3.3593185310        1.0309358794
 H         -2.1329547085        4.0959629447        1.5014543529
 H         -2.1420316524        2.6796408114        0.4691924676
 C         -3.4739164647        2.5805515851        2.1540156589
 H         -2.6998697055        2.0836426717        2.7444452761
 H         -4.0051379061        3.2749552909        2.8087461590
 C         -4.4627697111        1.5113847496        1.6718352108
 H         -4.7238601226        0.8779796730        2.5230457247
 H         -5.3696976935        1.9814796217        1.2922720118
 H         -2.8930923451        3.2171650802       -1.7149374988
 H         -4.4073379963        4.0874530204       -1.9680462919
 H         -5.6202222514        2.2172122475       -0.7829616599
 H         -4.8757463505        1.8018331016       -2.3372949788
 O         -3.3232103668        0.1609907026       -1.6368686449
 C         -2.5634286143       -0.9543394533       -1.3020927723
 O         -2.0488302175       -1.5147023429       -2.2897167138
 O         -3.0339052900       -0.8418317919        2.2834973163
 C         -1.6764272669       -2.5233082238        0.5008216301
 C         -0.2298748541       -2.1437996011        0.6878692776
 C          0.4116365116       -2.3154379338        1.9081498826
 C          1.7273261125       -1.9172855235        2.0743162094
 C          2.4270584139       -1.3391917760        1.0301611679
 C          1.7927910166       -1.1606500150       -0.1924007521
 C          0.4782315567       -1.5654648366       -0.3577745091
 H         -0.0113242387       -1.4189201253       -1.3100476495
 N          2.4946870470       -0.5519405255       -1.2586631810
 S          2.8379362994        1.0810796837       -1.0179828878
 O          1.8365163953        1.7101598564       -0.1852999066
 O          3.0183190603        1.6395983476       -2.3403149687
 C          4.4056424320        1.0531335039       -0.1756867083
 C          5.4907918584        0.5161821946       -0.8408322454
 C          6.7172933067        0.4779385452       -0.1971173407
 C          6.8371876597        0.9762838876        1.0919206486
 C          5.7388427587        1.5156430678        1.7441155715
 C          4.5084160718        1.5556628433        1.1064590718
 H          3.6246884470        1.9588536274        1.5746975246
 H          5.8338915628        1.9030823664        2.7457460861
 H          7.7926269499        0.9445459591        1.5913513093
 H          7.5738378519        0.0599580368       -0.7009273702
 H          5.3529507789        0.1455874242       -1.8428319932
 H          2.0088843539       -0.6517827307       -2.1403891905
 H          3.4508341427       -1.0254909994        1.1532189826
 H          2.2121446361       -2.0553943683        3.0285047894
 H         -0.1348510648       -2.7457163731        2.7345376977
 H         -2.0864364410       -2.7624121509        1.4946676052
 C         -1.8764599950       -3.7473945867       -0.3822485504
 C         -0.7871511558       -4.3778556197       -1.1928216195
 C         -1.2967326193       -5.0670102363        0.0348471446
 H         -1.8973566307       -5.9565863108       -0.0778598647
 H         -0.6561366224       -5.0709430117        0.9039294072
 H         -1.0532084273       -4.7717653760       -2.1619801577
 H          0.1983248426       -3.9407649354       -1.1590306866
 H         -2.8687543278       -3.7698458434       -0.8211783205
