  62
        -98.93778100
 C         -1.0465577505       -1.5575499823       -0.4830329693
 C         -1.2264614443       -0.1608653922       -0.6293230719
 C         -2.3695826080        0.4285915384        0.0976071397
 C         -3.1342382366       -0.3533118234        0.8763546246
 C         -4.3558615392        0.0426832377        1.6592193020
 C         -5.6328816017       -0.1946395103        0.8349966082
 C         -6.0429022798        0.9679577028       -0.0681263563
 H         -6.8764888268        0.6221438301       -0.6836534384
 H         -6.4109974171        1.7890464402        0.5506102090
 C         -4.9416945992        1.5032069557       -0.9868910170
 H         -5.4224496965        2.0388076316       -1.8076626394
 H         -4.3891510774        0.6690797936       -1.4228053693
 C         -3.9706134594        2.4560944841       -0.2739849406
 H         -3.8772025060        3.3765835841       -0.8539101050
 H         -4.3934439364        2.7402243345        0.6896023136
 C         -2.5479955074        1.9125339778       -0.0729111115
 H         -1.9339783084        2.1647570027       -0.9433577993
 H         -2.0912083893        2.4108932028        0.7899389423
 H         -6.4584997797       -0.3983940547        1.5199287626
 H         -5.4787167084       -1.0936325948        0.2326717472
 H         -4.3829034930       -0.6039803048        2.5389915543
 H         -4.2836448583        1.0750768089        1.9888270429
 O         -2.9102049081       -1.6899709433        1.0124113972
 C         -1.8713525514       -2.3154764139        0.3506168212
 O         -1.7886949412       -3.5416415476        0.5720352540
 H          1.2491764834       -0.2150905779        0.0353797256
 C          1.7540184482       -1.1331613731        0.2854315077
 C          1.2914776470       -2.3308008215       -0.2414085555
 C          1.9458742227       -3.5085309626        0.0980247101
 C          3.0312243541       -3.4832098898        0.9567651757
 C          3.4788464185       -2.2896857440        1.4939242788
 C          2.8321874805       -1.1052100219        1.1559320633
 N          3.2781497425        0.1261499779        1.6490088133
 S          2.2640023431        1.4506858862        1.7419640560
 O          2.9836795447        2.3781836876        2.5932263911
 O          0.9416766428        1.0913842644        2.2039992811
 C          2.2156426419        2.1135856103        0.0913828705
 C          1.1463420852        2.9131084286       -0.2546139168
 C          1.1052910315        3.4690681920       -1.5223073553
 C          2.1300394715        3.2151201586       -2.4189080024
 C          3.2003875038        2.4135913800       -2.0546074305
 C          3.2500734335        1.8590249602       -0.7861533471
 H          4.0655214379        1.2261114815       -0.4768207317
 H          3.9941106235        2.2131728341       -2.7564901983
 H          2.0912631996        3.6407470515       -3.4094095775
 H          0.2693624143        4.0878857140       -1.8067742985
 H          0.3606134835        3.0698532886        0.4670024976
 H          3.9601931687        0.0930759515        2.3910872397
 H          4.3174538482       -2.2716954067        2.1729095656
 H          3.5287886925       -4.4044317027        1.2194305481
 H          1.5860197528       -4.4472063088       -0.2969857777
 C          0.0850425445       -2.3302704655       -1.1441311950
 H         -0.2754196082       -3.3691588948       -1.2157102921
 C          0.3962080856       -1.8599356811       -2.5579759453
 C          1.6176437825       -1.0774199092       -2.9246324279
 C          1.5013184885       -2.5126525676       -3.3353796702
 H          1.3343201638       -2.7452747768       -4.3761283864
 H          2.1147195830       -3.2318589973       -2.8136012472
 H          1.5070269861       -0.3070583835       -3.6718862316
 H          2.3149316640       -0.8216104508       -2.1428330373
 H         -0.5084149684       -1.6192417623       -3.1068819358
 O         -0.4921677265        0.5770154767       -1.3339978535
