  62
        -98.94149201
 C         -1.6194977941       -1.1784721875        0.1681688467
 C         -1.6647409939        0.1683858109        0.6106803431
 C         -2.7502849468        0.9992049842        0.0761811945
 C         -3.6185507761        0.4563526089       -0.7966407409
 C         -4.8025551270        1.1663572254       -1.3849588966
 C         -6.0570267122        0.9605950242       -0.5246517548
 C         -5.8364220755        1.2355427478        0.9628420613
 H         -5.1464081240        0.4901179945        1.3650799818
 H         -6.7944187759        1.0902214766        1.4667700015
 C         -5.3016569612        2.6401053398        1.2756227219
 H         -5.8650775717        3.0502300761        2.1164099068
 H         -5.4684845210        3.2987447144        0.4225699562
 C         -3.8235777739        2.6827493592        1.6678213283
 H         -3.6341296265        1.9555661085        2.4616279029
 H         -3.6085516573        3.6740064327        2.0760391291
 C         -2.8223748960        2.4292586737        0.5335470240
 H         -1.8264738415        2.6736581647        0.9155742828
 H         -3.0441522603        3.0919767705       -0.3057703550
 H         -6.3879409822       -0.0745379597       -0.6361378283
 H         -6.8465153065        1.6121370361       -0.9035216950
 H         -4.5781350849        2.2278094668       -1.4697437427
 H         -4.9862000787        0.7611095350       -2.3813575912
 O         -3.5375665087       -0.8314236539       -1.2104579305
 C         -2.5401936588       -1.6850507256       -0.7505198091
 O         -2.6019245052       -2.8285681949       -1.2350771461
 H          1.9908896599       -1.1786859121        1.4016906977
 C          1.9177535240       -1.4327467607        0.3550691720
 C          0.7206548285       -1.8962518490       -0.1686414860
 C          0.6531036332       -2.1978323681       -1.5264337751
 C          1.7664808365       -2.0478702055       -2.3316901223
 C          2.9567548232       -1.5720151857       -1.8079536360
 C          3.0304190444       -1.2555415508       -0.4574154653
 N          4.2211493097       -0.7605759230        0.1042078162
 S          4.1578421806        0.6530830809        1.0050693916
 O          5.5388273736        1.0695051509        1.1172701687
 O          3.4650166497        0.4146534932        2.2436179601
 C          3.2681964725        1.7954761741       -0.0362445225
 C          3.9997330041        2.5235881758       -0.9558409450
 C          3.3349624641        3.3634022844       -1.8333363732
 C          1.9514772815        3.4509891199       -1.7867798269
 C          1.2333341700        2.7120740007       -0.8604155584
 C          1.8919161177        1.8752858702        0.0280551054
 H          1.3413513215        1.3020092562        0.7578456826
 H          0.1567863930        2.7713456865       -0.8175883767
 H          1.4293737226        4.0991068947       -2.4729564804
 H          3.8933476635        3.9426503498       -2.5509670259
 H          5.0737588975        2.4293229805       -0.9525497541
 H          4.9915512298       -0.7160225356       -0.5482918945
 H          3.8222212929       -1.4454610689       -2.4404728324
 H          1.7047957610       -2.2930321601       -3.3811645597
 H         -0.2810893473       -2.5503917070       -1.9375077105
 C         -0.4893036181       -2.0299639742        0.7201698971
 H         -0.2342718812       -1.5669990254        1.6873779801
 C         -0.8846935216       -3.4719173521        1.0024732877
 C         -0.3118182528       -4.6506977452        0.2798668799
 C          0.0865790303       -4.3803441818        1.6975586911
 H         -0.2775671077       -5.0330459281        2.4764746367
 H          1.0812397841       -3.9966029318        1.8723020106
 H          0.4176094312       -4.4755119618       -0.4946675121
 H         -0.9747457802       -5.4770572766        0.0736765990
 H         -1.9246038818       -3.5565364763        1.3006835541
 O         -0.8302726908        0.6523836841        1.4228231234
