  62
        -98.93916735
 C         -1.2281468453       -1.0272253257        0.5815440620
 C         -1.9508415531       -0.8727242310       -0.6246610652
 C         -2.7722259720        0.3467661782       -0.7389398716
 C         -2.7665553401        1.2534979517        0.2549612949
 C         -3.4882119375        2.5790260611        0.3714164221
 C         -4.7751027902        2.8370992548       -0.4120214102
 C         -5.9338451587        1.8932156228       -0.1000966512
 H         -6.2395756222        2.0380964235        0.9390647849
 H         -6.7754740623        2.1774793746       -0.7361829933
 C         -5.6467449322        0.4061707804       -0.2996605520
 H         -4.9525401553        0.0582686018        0.4681313519
 H         -6.5842088153       -0.1366125422       -0.1506366654
 C         -5.0990811474        0.0220343099       -1.6745055499
 H         -5.7436614072        0.4309526511       -2.4547232447
 H         -5.1385852763       -1.0679167684       -1.7462511107
 C         -3.6444935211        0.4493140987       -1.9555896053
 H         -3.5967980076        1.4518099059       -2.3752016051
 H         -3.2267025461       -0.2378497519       -2.6967618735
 H         -4.5766004656        2.8363803864       -1.4799558527
 H         -5.0953304437        3.8495813032       -0.1506650499
 H         -3.6881359291        2.7087300711        1.4391439299
 H         -2.7666782639        3.3538718718        0.0897761892
 O         -1.9834727346        1.1008232788        1.3616160527
 C         -1.2054469673       -0.0242279994        1.5523620325
 O         -0.5479462936       -0.0198913674        2.6126822580
 O         -1.9302926700       -1.7012808024       -1.5707535301
 C         -0.3906554391       -2.2652886834        0.8662958597
 C          0.8823263146       -2.1718779160        0.0623402307
 C          1.0235295822       -2.7286899638       -1.2025901879
 C          2.1941386922       -2.5496768198       -1.9200671983
 C          3.2464919733       -1.8231261800       -1.3917491122
 C          3.1128225481       -1.2632312525       -0.1282345688
 C          1.9384528254       -1.4369815863        0.5880765716
 H          1.8263928470       -0.9816775022        1.5640860789
 N          4.1818010934       -0.5027498847        0.4043830311
 S          4.3942460664        1.0023556489       -0.2979105706
 O          4.6173911592        0.8250618674       -1.7090323336
 O          5.4534685375        1.6426136332        0.4468189088
 C          2.8529429847        1.8540059192       -0.0149808978
 C          1.7704469972        1.5683789495       -0.8229437653
 C          0.5556206733        2.1769754051       -0.5514930053
 C          0.4454080694        3.0517129984        0.5180118641
 C          1.5405752254        3.3248386276        1.3221481517
 C          2.7561506002        2.7162009096        1.0587600408
 H          3.6335913720        2.8992782860        1.6582196667
 H          1.4456464573        4.0020638208        2.1556179001
 H         -0.5030767889        3.5167054454        0.7349418260
 H         -0.3020351303        1.9531722844       -1.1677623798
 H          1.8888501389        0.8842963078       -1.6481140938
 H          4.1152595877       -0.3819821361        1.4061884502
 H          4.1577830787       -1.6618460110       -1.9439273116
 H          2.2883498325       -2.9827201681       -2.9043927580
 H          0.2043204794       -3.2790493920       -1.6347678492
 H         -0.1183775054       -2.2006699700        1.9284346305
 C         -1.1585148892       -3.5509443714        0.6431839091
 C         -0.6115760326       -4.8290973586        1.2014363167
 C         -1.8347034559       -4.2095732703        1.8061869396
 H         -2.7896087407       -4.6867015977        1.6440142638
 H         -1.7429624974       -3.7373721959        2.7737515402
 H         -0.7244533586       -5.7342949012        0.6249349435
 H          0.3120759563       -4.7751443779        1.7579571585
 H         -1.6680473019       -3.5924444698       -0.3102586974
