  62
        -98.93970267
 C         -2.5031460141       -0.9658661540       -0.3134817043
 C         -3.7474942511       -1.1109194268        0.3463727680
 C         -4.8554367495       -0.3176866887       -0.1962491317
 C         -4.6483615567        0.4742170161       -1.2643098173
 C         -5.6828702122        1.3275929479       -1.9466347218
 C         -5.8976773549        2.6957919410       -1.2851043042
 C         -6.6435104457        2.6628641111        0.0494419572
 H         -6.9146684599        3.6926473964        0.2903932964
 H         -7.5707583738        2.1010392579       -0.0673143720
 C         -5.8305208800        2.0818134727        1.2147788307
 H         -4.7700919563        2.0741753109        0.9514557871
 H         -5.9369250072        2.7263428924        2.0903232439
 C         -6.2460553220        0.6725569438        1.6373127080
 H         -5.5831821240        0.3470904611        2.4432515859
 H         -7.2656754858        0.6927540614        2.0284926133
 C         -6.1741980086       -0.3707092230        0.5144616148
 H         -6.9925935257       -0.2226011261       -0.1896152912
 H         -6.2712183030       -1.3629927181        0.9618060630
 H         -4.9248462589        3.1734470386       -1.1473226077
 H         -6.4729146428        3.3083838071       -1.9830851046
 H         -5.3271414910        1.4904522142       -2.9662056312
 H         -6.6305733610        0.7902711866       -1.9904366946
 O         -3.4393069883        0.5770275329       -1.8770022347
 C         -2.3339625529       -0.1186009465       -1.4084768434
 O         -1.2875561969        0.0940557539       -2.0497410496
 O         -3.9229250163       -1.8672901758        1.3390992825
 C         -1.3048244526       -1.7368314637        0.2120152126
 C         -0.2697371714       -0.7582759067        0.7094147389
 C         -0.6035718977        0.0769167062        1.7729383242
 C          0.2988970745        1.0049516589        2.2543712607
 C          1.5546365418        1.1270299798        1.6839610515
 C          1.8999190708        0.2963899512        0.6277040666
 C          0.9929539795       -0.6438076342        0.1521015312
 H          1.2753649078       -1.2782565123       -0.6737479651
 N          3.1709125395        0.4235019129        0.0235036981
 S          4.5224406222        0.1619727571        1.0038858429
 O          4.5789780507       -1.2253425813        1.4160971691
 O          4.5251334441        1.1357954686        2.0643089240
 C          5.8350307497        0.5124973090       -0.1483752133
 C          6.1479932806        1.8332706131       -0.4061268448
 C          7.1506209939        2.1177645252       -1.3191366650
 C          7.8188976239        1.0827032095       -1.9564203771
 C          7.4936670987       -0.2379621004       -1.6869589867
 C          6.4909110943       -0.5292020800       -0.7753229094
 H          6.2118781557       -1.5411312262       -0.5286547233
 H          8.0163585029       -1.0403538373       -2.1824271805
 H          8.5999664055        1.3067094308       -2.6657291852
 H          7.4077457024        3.1432195336       -1.5303639347
 H          5.6076453999        2.6041645086        0.1177861777
 H          3.2464637326       -0.1790409217       -0.7866227726
 H          2.2696384211        1.8422589590        2.0551936633
 H          0.0237186913        1.6443783366        3.0799485952
 H         -1.5863115904       -0.0134911317        2.2161083697
 H         -1.6796654444       -2.3021126875        1.0776173826
 C         -0.7899219789       -2.7150726512       -0.8214988030
 C          0.0487728986       -3.8806303683       -0.3917296773
 C         -1.3579055472       -4.1008265795       -0.8589070234
 H         -1.5156446135       -4.5668053400       -1.8199371447
 H         -2.1091669841       -4.3507548854       -0.1242476329
 H          0.8575288915       -4.2000864034       -1.0316227956
 H          0.2577015842       -3.9826480136        0.6626709810
 H         -0.5646442922       -2.2442447036       -1.7716885564
