  62
        -98.94579640
 C          2.1977172626        1.1632118756        0.1968644236
 C          1.8685357037        0.2414288467       -0.8268828212
 C          2.6333528280       -1.0158125204       -0.8235340749
 C          3.5719303104       -1.2161407130        0.1196587357
 C          4.3977756177       -2.4619598915        0.2581120559
 C          3.7253077468       -3.4784215490        1.1912331691
 C          2.2554281052       -3.7385043348        0.8613991145
 H          1.8908890008       -4.4918243388        1.5633887337
 H          1.6822857966       -2.8266007010        1.0466582909
 C          2.0028918579       -4.2126871610       -0.5766879103
 H          2.9315874394       -4.5828487424       -1.0122709866
 H          1.3007007091       -5.0486824048       -0.5504867739
 C          1.3965046649       -3.1506927862       -1.4955929279
 H          0.5149154896       -2.7197222655       -1.0150792110
 H          1.0602788972       -3.6472755963       -2.4095583163
 C          2.3341529970       -2.0097757699       -1.9111148578
 H          3.2591074819       -2.4259274236       -2.3154318559
 H          1.8390580801       -1.4416555439       -2.7041496249
 H          4.2820909564       -4.4157744536        1.1405957017
 H          3.7861136618       -3.1029912504        2.2155811868
 H          4.5495559597       -2.9018244521       -0.7256713996
 H          5.3674036446       -2.1857436475        0.6759112276
 O          3.8479437571       -0.3127701574        1.0952431332
 C          3.1687379057        0.8942208218        1.1603905153
 O          3.5111102378        1.6270165548        2.1112869140
 H          0.1706748767        0.6588991389        1.6663254841
 C         -0.5147650427        1.3169571758        1.1453691441
 C         -0.0036422164        2.3366928084        0.3530243536
 C         -0.8983880135        3.1718979745       -0.3046138942
 C         -2.2636927084        2.9864988455       -0.1700658162
 C         -2.7677428868        1.9637480961        0.6115203540
 C         -1.8814775962        1.1184161034        1.2673845183
 N         -2.3822525272        0.0547045703        2.0364877325
 S         -3.6391069943       -0.8454590531        1.3921861394
 O         -4.8950516749       -0.2168173404        1.7211167368
 O         -3.4543547731       -2.1808389265        1.9180218743
 C         -3.4120176248       -0.8283334110       -0.3780224428
 C         -2.1679104848       -1.1339461883       -0.8915895389
 C         -1.9777542797       -1.0971722848       -2.2625081325
 C         -3.0366005885       -0.7691590155       -3.0950272531
 C         -4.2846222733       -0.4779575379       -2.5665204131
 C         -4.4757654388       -0.5011750847       -1.1943676304
 H         -5.4237780574       -0.2642383707       -0.7391127990
 H         -5.1057221545       -0.2241112455       -3.2174514342
 H         -2.8833295749       -0.7370862953       -4.1621226960
 H         -0.9979844558       -1.2969165133       -2.6649335790
 H         -1.3563356564       -1.3797353271       -0.2245386436
 H         -1.6688474721       -0.5432112366        2.4264149156
 H         -3.8279516816        1.8055941851        0.7272128315
 H         -2.9456000452        3.6453141051       -0.6851563007
 H         -0.5257693618        3.9697928765       -0.9253329188
 C          1.4937133382        2.5060395402        0.2606955882
 H          1.8369914280        2.9846900717        1.1902479534
 C          1.9249258103        3.3627352932       -0.9134998281
 C          2.0361159908        4.8500645836       -0.7701668067
 C          3.2743177181        4.0124286543       -0.8720525088
 H          3.8560954727        4.0549112447       -1.7805772144
 H          3.8678637765        3.8622209119        0.0185098680
 H          1.7704568956        5.4710707619       -1.6124255257
 H          1.7961791886        5.2810145050        0.1901961301
 H          1.5918576263        2.9613280046       -1.8636238130
 O          0.9877822698        0.4535431369       -1.6979536233
