  62
        -98.93775750
 C         -1.1098676976       -1.0507444431        0.6949998389
 C         -1.6664513414       -0.6095981293       -0.5314597760
 C         -2.5160335302        0.5915629141       -0.4518919986
 C         -2.6870920960        1.2095269322        0.7299735843
 C         -3.5674011784        2.4041213675        0.9560138352
 C         -4.9878082003        1.9775615868        1.3526693856
 C         -5.5914867080        0.9111601215        0.4382339504
 H         -5.0243975182       -0.0160338965        0.5491962285
 H         -6.6037549603        0.7122786363        0.7970112479
 C         -5.6420742845        1.2999485541       -1.0460854096
 H         -5.5369301224        2.3805551086       -1.1491659942
 H         -6.6227440114        1.0308951549       -1.4440602959
 C         -4.5989046389        0.6022846254       -1.9211867279
 H         -4.6393774523       -0.4761919443       -1.7496395270
 H         -4.8621511456        0.7773815501       -2.9675477435
 C         -3.1501969372        1.0678044704       -1.7286746194
 H         -2.5516891413        0.6383381997       -2.5370084970
 H         -3.1033534913        2.1559649022       -1.8036288937
 H         -5.6262675968        2.8629139994        1.3538400827
 H         -4.9583619498        1.5793933593        2.3697505432
 H         -3.1379937996        3.0012778260        1.7624940919
 H         -3.5996000485        3.0049927117        0.0489608381
 O         -2.1004937605        0.7816944086        1.8783938322
 C         -1.3167479368       -0.3593571552        1.8914592494
 O         -0.8640539876       -0.6518028052        3.0182753862
 H          2.0061237274       -1.0670893962        1.3625427996
 C          2.0306766453       -1.4444289266        0.3500882098
 C          0.9421913642       -2.1574339769       -0.1455610224
 C          1.0114615532       -2.6227911893       -1.4535762903
 C          2.1374420854       -2.3901786162       -2.2248369573
 C          3.2096480178       -1.6736718210       -1.7275601498
 C          3.1499426116       -1.1903053827       -0.4263039970
 N          4.2162085852       -0.4505650520        0.1183770779
 S          3.8769235228        0.9737803561        0.9261564672
 O          5.1352822935        1.6880096863        0.9389730331
 O          3.2953966627        0.6933984241        2.2133279795
 C          2.7147969723        1.8221278472       -0.1271088897
 C          1.3664158914        1.7993528261        0.1632125438
 C          0.4855485031        2.4252554897       -0.7050902620
 C          0.9636867563        3.0513461788       -1.8450844019
 C          2.3222652010        3.0669593406       -2.1225868717
 C          3.2072281322        2.4453515937       -1.2579027492
 H          4.2716958965        2.4473209959       -1.4280529594
 H          2.6908417151        3.5590778026       -3.0080587247
 H          0.2704751000        3.5309812431       -2.5176410976
 H         -0.5710413243        2.4074401550       -0.4878086485
 H          1.0224255209        1.3023124112        1.0577130293
 H          4.9922254399       -0.3213592535       -0.5154643711
 H          4.0817567619       -1.4880265744       -2.3356001092
 H          2.1709301533       -2.7635792474       -3.2370193799
 H          0.1801018571       -3.1411139877       -1.8946167614
 C         -0.2336711595       -2.2960962515        0.7902009574
 H          0.1847647588       -2.2542134354        1.8083844294
 C         -1.0829108645       -3.5613249724        0.7685816020
 C         -1.8125870861       -4.1065881625       -0.4206970027
 C         -0.6513590085       -4.8594213555        0.1561902715
 H         -0.8554945158       -5.7684673124        0.7024257099
 H          0.2778708402       -4.8766547389       -0.3903837642
 H         -1.7105137399       -3.5946019925       -1.3629141546
 H         -2.8062849054       -4.4991167998       -0.2548348445
 H         -1.6230069205       -3.6396739274        1.7100793635
 O         -1.4827950233       -1.1714094686       -1.6381411180
