  62
        -98.94389391
 C         -1.7719271736       -0.5018244862       -0.3973688041
 C         -3.0168298802       -1.0697027499       -0.7581713317
 C         -4.1381686819       -0.7917647309        0.1488875369
 C         -3.9223821953       -0.0550510016        1.2542230641
 C         -4.9835046321        0.3465380066        2.2364837695
 C         -5.6020497936        1.7008518886        1.8624721007
 C         -6.0286434662        1.8015975805        0.3979311690
 H         -6.4775142579        2.7872459301        0.2571132677
 H         -5.1402316364        1.7594474711       -0.2362737760
 C         -7.0213261510        0.7196422030       -0.0497530551
 H         -7.4912393813        0.2637567194        0.8225381563
 H         -7.8137259612        1.1916444117       -0.6345388397
 C         -6.4129994468       -0.3758310965       -0.9274981298
 H         -7.2309894535       -0.9568524410       -1.3618252598
 H         -5.8621429203        0.0807650729       -1.7537424623
 C         -5.4803550155       -1.3623465259       -0.2133151727
 H         -5.9795888255       -1.7674755712        0.6693893391
 H         -5.2791308850       -2.1877786747       -0.9027135441
 H         -4.8661323917        2.4837675137        2.0594760050
 H         -6.4649379872        1.8760408357        2.5076189092
 H         -5.7543621736       -0.4211377884        2.2657414935
 H         -4.5258821971        0.4261728398        3.2240898885
 O         -2.7075153359        0.4535710828        1.5806423051
 C         -1.6043612053        0.2573799439        0.7612279188
 O         -0.5599723194        0.7946906721        1.1706167923
 H          2.1093527930       -0.4082086495       -1.7041541475
 C          1.8864363367       -1.1090080800       -0.9140005973
 C          0.5663878962       -1.3843686696       -0.5850763497
 C          0.3195648307       -2.3096368544        0.4246190688
 C          1.3591535423       -2.9090836614        1.1107066357
 C          2.6737305021       -2.6135684106        0.7945817057
 C          2.9325151561       -1.7165706659       -0.2307336630
 N          4.2781555042       -1.4173543968       -0.5499452726
 S          5.0609435450       -0.3993715724        0.5291851307
 O          6.4090631712       -0.2526496796        0.0293984032
 O          4.9207720819       -0.9385696557        1.8564154880
 C          4.1878879174        1.1476754278        0.3718571810
 C          2.9449826887        1.2720073031        0.9592845505
 C          2.2133301222        2.4291858273        0.7422866299
 C          2.7383314929        3.4386323721       -0.0497831540
 C          3.9932082941        3.3028623033       -0.6258844971
 C          4.7226854987        2.1428737005       -0.4235426395
 H          5.6972979243        1.9902140889       -0.8586851549
 H          4.3983563852        4.0925308031       -1.2382845488
 H          2.1632481436        4.3356158689       -0.2197955874
 H          1.2284145368        2.5070791680        1.1750762434
 H          2.5522258722        0.4754465537        1.5702178792
 H          4.3914085814       -1.0448551424       -1.4833930092
 H          3.4971826629       -3.0517739300        1.3340624552
 H          1.1440352702       -3.6128425466        1.9008173945
 H         -0.7045752482       -2.5468611767        0.6785934739
 C         -0.5798733915       -0.7204409658       -1.3081148606
 H         -0.9350276084       -1.4086414194       -2.0906582546
 C         -0.1791636156        0.5911599305       -1.9567215050
 C          0.3290930268        0.6270772131       -3.3665251629
 C         -1.0393257030        1.1486498255       -3.0495137399
 H         -1.2091046871        2.2142475772       -3.0815246543
 H         -1.8935198865        0.5612009512       -3.3538669064
 H          1.1004555512        1.3396250073       -3.6183672219
 H          0.3988005830       -0.3091056833       -3.9000845225
 H          0.2417058475        1.2918031440       -1.2438297133
 O         -3.1804775776       -1.7775167356       -1.7890872880
