  62
        -98.94333099
 C         -1.2862429194       -1.1987775241        0.2499697273
 C         -2.1852444193       -0.7588932735        1.2534865996
 C         -2.8387835896        0.5326703000        1.0134689491
 C         -2.5102317036        1.2521135600       -0.0745908090
 C         -3.0695338539        2.5987776007       -0.4456211868
 C         -4.4086100666        2.5327171113       -1.1930622092
 C         -5.6141196064        2.1429662682       -0.3367161714
 H         -5.6558301457        2.7838576849        0.5446106606
 H         -6.5080554112        2.3471875533       -0.9294351056
 C         -5.6353365099        0.6698147323        0.0947269733
 H         -4.9486373010        0.0966474146       -0.5326338523
 H         -6.6338379386        0.2570139223       -0.0661090910
 C         -5.2793178085        0.4338100294        1.5627665109
 H         -5.2899093054       -0.6433393804        1.7496193144
 H         -6.0372450092        0.8920776633        2.2020178677
 C         -3.9025451324        0.9730694450        1.9730334880
 H         -3.9300918325        2.0604214392        2.0414121195
 H         -3.6538538259        0.5665032295        2.9565976309
 H         -4.3111124184        1.8307488461       -2.0243362317
 H         -4.5961106449        3.5230028960       -1.6144441061
 H         -2.3349061455        3.0715181544       -1.1000543628
 H         -3.1826874083        3.2092774817        0.4507115819
 O         -1.5880028538        0.8301816461       -0.9767614239
 C         -0.9626224925       -0.4045870700       -0.8530543884
 O         -0.1589657968       -0.6536474329       -1.7674843126
 O         -2.4218323231       -1.4102020433        2.3067549728
 C         -0.5923056139       -2.5335938413        0.4584977580
 C          0.8872500223       -2.3662535764        0.2240633280
 C          1.6048515508       -3.0543781850       -0.7439214723
 C          2.9533052393       -2.8000661731       -0.9290778062
 C          3.6136535416       -1.8626594489       -0.1566593562
 C          2.9045737737       -1.1724893382        0.8182307255
 C          1.5573298738       -1.4320713520        1.0055972249
 H          1.0046350823       -0.8851213409        1.7604876164
 N          3.5635826372       -0.2040904994        1.6073315410
 S          4.2083981545        1.1080614042        0.7882145950
 O          5.3350387064        0.6640560042        0.0080165257
 O          4.4884802365        2.0918246367        1.8104293326
 C          2.9077818977        1.6892915095       -0.2828312351
 C          1.9764532525        2.5687799650        0.2319891855
 C          0.9427718646        3.0015288352       -0.5818035893
 C          0.8539157173        2.5412420686       -1.8862316880
 C          1.7897209141        1.6490482975       -2.3839036594
 C          2.8284503184        1.2161067398       -1.5764685127
 H          3.5758973430        0.5244558422       -1.9289286027
 H          1.7049350228        1.2790508814       -3.3923401913
 H          0.0442573593        2.8695362467       -2.5187595292
 H          0.2081066767        3.6899126231       -0.1942344244
 H          2.0853631810        2.9102446319        1.2494421468
 H          2.9932571336        0.1337425400        2.3702321700
 H          4.6581170204       -1.6391326049       -0.3027638459
 H          3.4968745587       -3.3356725135       -1.6926093079
 H          1.1033400603       -3.7696337288       -1.3746359253
 H         -0.7438030370       -2.7553607290        1.5285985508
 C         -1.2062992741       -3.6923778719       -0.3113996345
 C         -2.6627996072       -3.6917857634       -0.6652719787
 C         -1.6299522806       -3.5729912022       -1.7434626278
 H         -1.4731150919       -4.4203694126       -2.3949524304
 H         -1.4936288452       -2.6190998135       -2.2274779815
 H         -3.2141416950       -4.6158658242       -0.5759975857
 H         -3.2387970310       -2.8143597486       -0.4088335232
 H         -0.7885865177       -4.6467767490       -0.0053974594
