  62
        -98.93888223
 C         -2.4506695890       -0.8644830598        0.7887192702
 C         -3.3814615591       -0.6255271506       -0.2520889698
 C         -4.2199818493        0.5734942394       -0.0973012204
 C         -4.0419403793        1.3748981200        0.9681262291
 C         -4.7868548695        2.6539085201        1.2157425584
 C         -4.0504703498        3.8549628198        0.6056906076
 C         -3.6248997799        3.6465545890       -0.8477708623
 H         -3.1420757401        4.5679353289       -1.1804875029
 H         -2.8713087798        2.8564687091       -0.8898919019
 C         -4.7754779599        3.2990607883       -1.8026329920
 H         -5.7292373399        3.5686690784       -1.3475159020
 H         -4.6693713601        3.8959213278       -2.7109065123
 C         -4.8180129097        1.8325844480       -2.2358513011
 H         -3.8355372697        1.5302924380       -2.6074800310
 H         -5.5234021098        1.7436544974       -3.0663434710
 C         -5.2530906195        0.8321764686       -1.1577807105
 H         -5.4247916094       -0.1298698717       -1.6492047899
 H         -6.1919554195        1.1610776687       -0.7077529606
 H         -3.1546540098        4.0500672203        1.1996992574
 H         -4.7007438099        4.7288942798        0.6742426172
 H         -5.7857779096        2.5733542997        0.7915899385
 H         -4.8704431294        2.7997669307        2.2940074983
 O         -3.1119782492        1.1323556808        1.9275497991
 C         -2.2927154290        0.0202421308        1.8573701097
 O         -1.4717913189       -0.0706319385        2.7942709197
 O         -3.5215920291       -1.3679327112       -1.2577735794
 C         -1.5279298488       -2.0736607897        0.7665710008
 C         -0.4519577790       -1.8402405901       -0.2670380794
 C         -0.4630843790       -2.4169577008       -1.5296710091
 C          0.5489049609       -2.1373651912       -2.4326597393
 C          1.5881298508       -1.2881570009       -2.0986390099
 C          1.6090053808       -0.7079088201       -0.8363461603
 C          0.5928276809       -0.9855980997        0.0649497700
 H          0.5996902210       -0.5286876892        1.0473549897
 N          2.6676769907        0.1626977103       -0.4819301909
 S          4.2011270308       -0.5566696695       -0.4660808806
 O          4.5644469907       -0.8870597602       -1.8197000304
 O          4.2265424211       -1.6501896689        0.4823766900
 C          5.2106548507        0.7890395310        0.1200042885
 C          5.6365389104        1.7419220606       -0.7853156121
 C          6.4088618603        2.7987937010       -0.3308348628
 C          6.7393444704        2.8853821018        1.0134720171
 C          6.3043889107        1.9211195523        1.9100272777
 C          5.5309917708        0.8617472319        1.4619856784
 H          5.1807434810        0.0841855022        2.1221611889
 H          6.5647177207        1.9892047429        2.9540874577
 H          7.3423081903        3.7076954521        1.3649443666
 H          6.7513028301        3.5493748806       -1.0247600233
 H          5.3631486103        1.6282510799       -1.8211548320
 H          2.5026368007        0.5688917908        0.4312116789
 H          2.3885997807       -1.0808501311       -2.7895264901
 H          0.5280509409       -2.5892200518       -3.4130098291
 H         -1.2709395189       -3.0724874211       -1.8097121786
 H         -1.0389913687       -2.0922113990        1.7507349708
 C         -2.2826073686       -3.3723138999        0.5811747117
 C         -1.5908652884       -4.6650801996        0.8893573424
 C         -2.6796221084       -4.1641374293        1.7889609322
 H         -3.6314617283       -4.6735493094        1.7801413826
 H         -2.4029777283       -3.7734549186        2.7576579919
 H         -1.7930332583       -5.5210266600        0.2639645129
 H         -0.5724411684       -4.6122721592        1.2450445122
 H         -2.9778203787       -3.3526032405       -0.2479397983
