  62
        -98.94453851
 C          1.3919190941        1.4566144570        0.4310558081
 C          1.7202722608        0.4209705058        1.3425155572
 C          2.8210247632       -0.4686003617        0.9553647922
 C          3.4364874661       -0.2745623435       -0.2242937661
 C          4.5554152941       -1.1186956594       -0.7600472633
 C          4.0281015225       -2.2524880671       -1.6493058769
 C          2.8947046182       -3.0648980585       -1.0215319187
 H          1.9966349577       -2.4463048500       -0.9427775713
 H          2.6528078620       -3.8727468298       -1.7165344273
 C          3.2218512821       -3.6610748686        0.3547353316
 H          4.3027086650       -3.6918038751        0.5004106833
 H          2.8599437657       -4.6911927122        0.3790713801
 C          2.5668982979       -2.9337779664        1.5307399192
 H          1.5051088940       -2.7883475546        1.3114606288
 H          2.6364176549       -3.5778011259        2.4117895255
 C          3.1812968210       -1.5774851861        1.9025079396
 H          2.7804558036       -1.2844319871        2.8773056536
 H          4.2651968734       -1.6764013206        1.9918380014
 H          4.8613968281       -2.9163492238       -1.8888085290
 H          3.6589205813       -1.8195190712       -2.5820350166
 H          5.2111904512       -0.4803417630       -1.3552141129
 H          5.1228558959       -1.5298835247        0.0726984736
 O          3.0755656618        0.7051362778       -1.0898147653
 C          2.0105692576        1.5552826615       -0.8165259274
 O          1.7378854154        2.3308393732       -1.7512356556
 H         -0.5716720175        0.0653892060       -0.3215168246
 C         -1.1376772151        0.8876969895       -0.7288259475
 C         -0.8521578883        2.1797440006       -0.3085150762
 C         -1.5591247791        3.2298328831       -0.8776256038
 C         -2.5179206633        2.9775384816       -1.8453111375
 C         -2.8058968324        1.6869500314       -2.2510102723
 C         -2.0997123685        0.6289204455       -1.6882053329
 N         -2.3347750939       -0.6991023213       -2.0686618966
 S         -2.0838836722       -1.9459772963       -0.9860602099
 O         -0.6746365762       -2.1653566217       -0.7781590653
 O         -2.8160636838       -3.0571990280       -1.5561804171
 C         -2.8818430127       -1.4185062317        0.5203881676
 C         -4.2592696320       -1.3069852005        0.4959186176
 C         -4.9197940996       -0.8636795381        1.6291549224
 C         -4.1945045983       -0.5352264220        2.7649204225
 C         -2.8144891991       -0.6588008138        2.7767261440
 C         -2.1481449979       -1.1055502856        1.6458472826
 H         -1.0732082619       -1.2011926062        1.6352719662
 H         -2.2413212653       -0.4043202822        3.6541276981
 H         -4.7063011258       -0.1837195195        3.6468374709
 H         -5.9939451145       -0.7725481589        1.6237841955
 H         -4.7880865265       -1.5830010268       -0.4018652136
 H         -3.1336003304       -0.8516494930       -2.6648692438
 H         -3.5544966128        1.4981305068       -3.0048738194
 H         -3.0542320981        3.8024426387       -2.2893410126
 H         -1.3480467792        4.2443655359       -0.5821214289
 C          0.1937736124        2.3265445539        0.7696361720
 H         -0.2186777250        1.8556610864        1.6794181994
 C          0.5029712703        3.7671985920        1.1447480050
 C          1.8800597303        4.1857630386        1.5631898310
 C          1.3052323467        4.6845941070        0.2730161595
 H          1.0077817797        5.7216481559        0.2143787487
 H          1.6909801934        4.2835578859       -0.6501671077
 H          1.9803440595        4.8754369827        2.3880439324
 H          2.6640001583        3.4433099801        1.5148238930
 H         -0.3162920112        4.2227552113        1.6929025404
 O          1.1080876126        0.2420598207        2.4304819688
