  62
        -98.94339252
 C         -1.5326940993       -1.5446791397       -0.2255771328
 C         -1.3772306065       -0.1385882696       -0.3188507642
 C         -2.6176746112        0.6282458088       -0.5247097421
 C         -3.7938212444       -0.0176047530       -0.6063436947
 C         -5.1304711090        0.6479772628       -0.7570932455
 C         -5.7643550656        0.9332961932        0.6116790578
 C         -4.8214759053        1.6239956377        1.5972360489
 H         -5.3852898067        1.8007979394        2.5158919659
 H         -4.0056611433        0.9419783577        1.8479685586
 C         -4.2355341389        2.9501672021        1.0927538577
 H         -4.8330569170        3.3254864594        0.2611181169
 H         -4.2991276959        3.6876088004        1.8957240221
 C         -2.7669536849        2.8757901572        0.6699378338
 H         -2.3998987979        3.8973195422        0.5419484320
 H         -2.1786758665        2.4129388757        1.4661770768
 C         -2.4852959129        2.1209312038       -0.6350139750
 H         -1.4413917754        2.3052981833       -0.9043027606
 H         -3.1250714075        2.5076923692       -1.4307435460
 H         -6.6515050026        1.5509087654        0.4596464933
 H         -6.0827462431       -0.0154780899        1.0501197579
 H         -5.7865369731       -0.0185824198       -1.3195571005
 H         -5.0082514715        1.5754905124       -1.3129459117
 O         -3.9041764847       -1.3674764000       -0.5034336550
 C         -2.7863002115       -2.1578648198       -0.2899621460
 O         -3.0365846985       -3.3743239396       -0.1709379238
 O         -0.2756571264        0.4592349054       -0.2354500743
 C         -0.3425241369       -2.4593387037        0.0120487515
 C          0.5540696690       -1.8551085112        1.0633389466
 C          0.0729328140       -1.7396252850        2.3649190795
 C          0.8422041382       -1.1564305369        3.3528747387
 C          2.1039866516       -0.6690808089        3.0612834021
 C          2.5941693427       -0.7835371407        1.7657935384
 C          1.8253104485       -1.3838802103        0.7787676316
 H          2.2247216469       -1.4525986133       -0.2184140786
 N          3.8740457631       -0.3105986336        1.4489969580
 S          4.2611823072        0.2510691283       -0.0715022206
 O          4.3648677299       -0.8507732053       -0.9966060509
 O          5.4840830292        0.9995551274        0.1412423338
 C          2.9791149255        1.3785482692       -0.5851685216
 C          2.4665169575        1.2750520186       -1.8601985153
 C          1.5262455918        2.1992373411       -2.2831412843
 C          1.1164389493        3.2065315044       -1.4256607181
 C          1.6357330625        3.2929892707       -0.1440228290
 C          2.5788840867        2.3738690485        0.2821372981
 H          3.0022954911        2.4227177905        1.2724415193
 H          1.3035173817        4.0707948887        0.5250623981
 H          0.3840959219        3.9266366693       -1.7575441218
 H          1.1110088019        2.1242885420       -3.2761567917
 H          2.8064843362        0.4715331325       -2.4940046302
 H          4.3351961098        0.2145674592        2.1763803426
 H          2.7036626468       -0.2033189371        3.8284190325
 H          0.4544634603       -1.0709583491        4.3569933234
 H         -0.9210708160       -2.1045835389        2.5877261379
 H         -0.7702535513       -3.3895017701        0.4216479300
 C          0.4051952998       -2.8451855548       -1.2551638209
 C         -0.3184672595       -3.0187570829       -2.5560277714
 C          0.6375963299       -1.8797974696       -2.3765095167
 H          1.5877482020       -1.9201183892       -2.8900338801
 H          0.2403250345       -0.8828325740       -2.2689392321
 H         -0.0318244697       -3.8387720998       -3.1971888329
 H         -1.3768332769       -2.8023122918       -2.5711622978
 H          1.2046284502       -3.5522990741       -1.0525486993
