  62
        -98.94002421
 C         -1.0632978850       -1.3839723478       -0.7208920220
 C         -2.3572347744       -1.4487090280       -0.1491435113
 C         -3.2447527506       -0.2845778445       -0.3277245877
 C         -2.7806287975        0.7783941577       -1.0099574662
 C         -3.4656187697        2.0925511053       -1.2792238512
 C         -3.4875397050        3.0080844819       -0.0463489436
 C         -3.9054015452        2.3221617395        1.2512205631
 H         -3.2037733685        1.5136989413        1.4671420993
 H         -3.8060870621        3.0535873431        2.0580519668
 C         -5.3354293039        1.7863735568        1.2762950098
 H         -5.5292104564        1.4366188425        2.2935176329
 H         -6.0276457578        2.6056351834        1.0698553229
 C         -5.6394132895        0.6340763802        0.3151380397
 H         -6.5816384503        0.1821786821        0.6384169394
 H         -5.8020733416        0.9952976242       -0.6968440258
 C         -4.5984106171       -0.4805271225        0.3116490065
 H         -4.4048973295       -0.7957466957        1.3434983996
 H         -5.0296991000       -1.3605266490       -0.1807444972
 H         -4.1553384363        3.8471975931       -0.2505695406
 H         -2.4791904571        3.4038875856        0.1024034666
 H         -2.8954253242        2.5868961321       -2.0689890986
 H         -4.4717664587        1.9245200910       -1.6517252783
 O         -1.5306849743        0.7985414032       -1.5488748155
 C         -0.6398615831       -0.2516255202       -1.4164098754
 O          0.4571164242       -0.0422725406       -1.9707895735
 H          1.4607375780       -0.4672796805        0.0303949193
 C          1.4494270306       -1.1685901868        0.8485731669
 C          0.6906920344       -2.3260998850        0.7529820187
 C          0.7021548394       -3.2215428449        1.8156948601
 C          1.4421945654       -2.9514959402        2.9535403129
 C          2.1578845060       -1.7729465259        3.0645748349
 C          2.1520695788       -0.8720059888        2.0057253687
 N          2.8478493893        0.3438142289        2.0758375767
 S          2.1609887681        1.7095724238        1.3836308888
 O          2.7741759450        2.8141418290        2.0972637009
 O          0.7172513331        1.6660704597        1.4335781857
 C          2.7584840626        1.7382661442       -0.2908474366
 C          2.0048039949        2.3838356812       -1.2487969678
 C          2.4932964811        2.4661625562       -2.5425379735
 C          3.7200191542        1.9028647894       -2.8532797904
 C          4.4657789842        1.2582797830       -1.8784135075
 C          3.9854940691        1.1768822527       -0.5817196798
 H          4.5352740579        0.6775791281        0.1988662808
 H          5.4176467403        0.8159096959       -2.1255236839
 H          4.0938199953        1.9624431813       -3.8635168903
 H          1.9076850830        2.9584799903       -3.3023092763
 H          1.0449887760        2.7907584570       -0.9715145867
 H          3.2694628745        0.5488624542        2.9702241563
 H          2.7092574115       -1.5455853582        3.9642396893
 H          1.4435536146       -3.6546808268        3.7725405334
 H          0.1091361372       -4.1221125293        1.7554574776
 C         -0.1523103788       -2.5752392340       -0.4755928218
 H         -0.8240180400       -3.4163912544       -0.2552098320
 C          0.7183425122       -2.9497483485       -1.6579619383
 C          1.2354925478       -4.3519685187       -1.7646125873
 C          0.1748682641       -3.8701804816       -2.7075492908
 H          0.4393272699       -3.6867538596       -3.7378669782
 H         -0.8319196685       -4.2391777562       -2.5750544868
 H          2.2329007335       -4.5033484661       -2.1471251366
 H          0.9476918265       -5.0526865053       -0.9956672964
 H          1.3635447910       -2.1457600021       -1.9864710929
 O         -2.7682538637       -2.4539663152        0.4943205030
