  62
        -98.93921976
 C          1.7992168794        0.7557548976        0.5343780112
 C          3.1056809726        0.7589069935        1.0880834738
 C          3.9440705305       -0.4073371653        0.7821714380
 C          3.4251747338       -1.4156569458        0.0585996617
 C          4.1815662568       -2.6361123814       -0.3771930058
 C          4.8293349255       -2.4238741215       -1.7527390207
 C          5.6172459127       -1.1189964996       -1.8702655762
 H          6.0535131653       -1.0916427167       -2.8711727782
 H          4.9248532400       -0.2765680209       -1.8007711211
 C          6.7274536730       -0.9506490341       -0.8233973098
 H          6.9689430999       -1.9178550400       -0.3812475326
 H          7.6281942885       -0.5891206754       -1.3238684738
 C          6.4046252759        0.0483477577        0.2894260541
 H          7.3260208354        0.2518868535        0.8413588857
 H          6.0732538644        0.9924706658       -0.1509332701
 C          5.3516049041       -0.4056963348        1.3082216951
 H          5.6186957159       -1.3893619272        1.6993582337
 H          5.3607599128        0.3087900045        2.1365541136
 H          5.4892100174       -3.2687584455       -1.9578827972
 H          4.0413466187       -2.4167384629       -2.5096333984
 H          4.9445668579       -2.8682574956        0.3632414653
 H          3.4818291152       -3.4710379539       -0.4401857527
 O          2.1480211388       -1.4147873796       -0.3980105793
 C          1.3023799312       -0.3324315544       -0.1842472433
 O          0.1650236417       -0.4837799686       -0.6669381731
 O          3.5458601271        1.6936398332        1.8082486089
 C          0.9267587885        1.9701104312        0.7977632981
 C         -0.4700927922        1.5405633568        1.1649039482
 C         -0.6528153419        0.7746448158        2.3136561763
 C         -1.9057321790        0.3191892143        2.6747272414
 C         -3.0087305009        0.6181949519        1.8936359222
 C         -2.8385688053        1.3848614162        0.7501079801
 C         -1.5810215900        1.8503213115        0.3951016058
 H         -1.4725818418        2.4174503165       -0.5167388061
 N         -3.9799440480        1.6523889163       -0.0564318238
 S         -4.2320631193        0.4835081403       -1.2547936411
 O         -3.1798506285        0.5359127031       -2.2474031506
 O         -5.5617864475        0.7386538776       -1.7684617437
 C         -4.2027654038       -1.0530238329       -0.3649863061
 C         -2.9953072085       -1.6909394367       -0.1584798550
 C         -2.9883387571       -2.8705830269        0.5703310039
 C         -4.1732451917       -3.3846675892        1.0744331225
 C         -5.3759539647       -2.7298597604        0.8545151763
 C         -5.3932878065       -1.5497257853        0.1292304509
 H         -6.3009742401       -1.0040529737       -0.0704280150
 H         -6.2954371660       -3.1332249541        1.2471106439
 H         -4.1572221288       -4.3016319836        1.6423803703
 H         -2.0508374889       -3.3751043700        0.7429256993
 H         -2.0863508649       -1.2633509344       -0.5544174228
 H         -3.9054857353        2.5419439522       -0.5348698422
 H         -3.9928392496        0.2666512082        2.1574866599
 H         -2.0255790418       -0.2768739255        3.5662469503
 H          0.2124194100        0.5285670935        2.9144355290
 H          1.3814865085        2.4488708243        1.6812986063
 C          0.9626282507        3.0022228158       -0.3202032205
 C          2.1703342920        3.1560181417       -1.1938822802
 C          0.8969238285        2.6131803454       -1.7659291749
 H          0.3298311599        3.2360999469       -2.4430960443
 H          0.8380793711        1.5610538981       -2.0000083790
 H          2.4776001864        4.1523833050       -1.4738113825
 H          2.9928844012        2.4736096745       -1.0379686677
 H          0.4552447908        3.9210139196       -0.0404760557
