  62
        -98.93909132
 C         -2.3486120579       -0.6676957709        0.1217004585
 C         -2.5983559147        0.7287463149        0.1932136981
 C         -3.8513993157        1.2044188016       -0.4055281807
 C         -4.6747175403        0.3164763798       -0.9915288252
 C         -6.0065152695        0.6480900401       -1.5985185116
 C         -7.1369650950        0.5098900197       -0.5691720936
 C         -6.8548080846        1.2169788269        0.7563862303
 H         -7.7313962644        1.0776231574        1.3927199816
 H         -6.0160153241        0.7232660648        1.2524673056
 C         -6.5523361229        2.7161293141        0.6242316191
 H         -6.8970960497        3.0801091317       -0.3442238653
 H         -7.1117884537        3.2553112837        1.3915514470
 C         -5.0787803264        3.0846030438        0.8073407776
 H         -4.7017208883        2.6418455094        1.7328419401
 H         -5.0101052382        4.1706007563        0.9136030193
 C         -4.1415204202        2.6774372416       -0.3368155960
 H         -4.5437928153        3.0349548652       -1.2869575386
 H         -3.1769482559        3.1648596621       -0.1666356802
 H         -8.0536189654        0.9079386031       -1.0080097572
 H         -7.2905284941       -0.5520067908       -0.3643299017
 H         -5.9779095379        1.6635403491       -1.9888043663
 H         -6.1903363420       -0.0439492662       -2.4219137718
 O         -4.3995605923       -1.0086860275       -1.0542790018
 C         -3.2420323943       -1.5393899412       -0.5020630063
 O         -3.1534257193       -2.7747522203       -0.6427299462
 H          1.2752705219        0.1873829404        0.5164927419
 C          1.1766115850       -0.5861373309       -0.2315356225
 C          0.0292000127       -1.3641730220       -0.2806328469
 C         -0.0788358710       -2.3380561469       -1.2684558789
 C          0.9454257813       -2.5263198106       -2.1779157356
 C          2.1001170797       -1.7667295966       -2.1098632395
 C          2.2139086853       -0.7857697481       -1.1319682264
 N          3.3632292288        0.0160008086       -1.0493910203
 S          3.8992086098        0.4891045384        0.4804772954
 O          3.7993226414       -0.6194551061        1.4029140527
 O          3.2171956798        1.7004441677        0.8610775604
 C          5.6100889490        0.8471364979        0.1273329973
 C          6.5656698087       -0.1246834985        0.3573107681
 C          7.8891964413        0.1512482110        0.0518965239
 C          8.2323510313        1.3859427939       -0.4781877708
 C          7.2621845488        2.3515545118       -0.7027577459
 C          5.9370858273        2.0827227007       -0.3987552507
 H          5.1502163422        2.8040380691       -0.5466449685
 H          7.5331217450        3.3115345325       -1.1117344379
 H          9.2629354869        1.5983351184       -0.7148868420
 H          8.6460184393       -0.5959077259        0.2285686933
 H          6.2535721214       -1.0664020151        0.7794901486
 H          4.1213114672       -0.3207282631       -1.6270769667
 H          2.9041806051       -1.9261507183       -2.8122944840
 H          0.8491161612       -3.2838393915       -2.9411569458
 H         -0.9749050898       -2.9369024003       -1.3189526366
 C         -1.0555044191       -1.1573082046        0.7502371497
 H         -0.7273420684       -0.3379556708        1.4054049340
 C         -1.2170614830       -2.4067759901        1.5955126578
 C         -0.1263085970       -2.7657276458        2.5583266520
 C         -1.4468502733       -2.2744644297        3.0693771478
 H         -2.1073556372       -2.9785390860        3.5528928628
 H         -1.4941020448       -1.2765936480        3.4812678771
 H          0.1199626018       -3.8080694217        2.6908725021
 H          0.7259093085       -2.1037063662        2.6183112560
 H         -1.7218949973       -3.2137864493        1.0810836453
 O         -1.8069472742        1.5429162088        0.7424217564
