  62
        -98.94401815
 C         -2.1142115908       -1.3426082700       -0.0679939390
 C         -2.4556986408       -0.3101940503       -0.9751009294
 C         -3.8405051108        0.1735625496       -0.8957560996
 C         -4.6980674908       -0.3798918901       -0.0198464994
 C         -6.1452233509       -0.0095319602        0.1593009004
 C         -6.3705094210        1.1952524901        1.0830854800
 C         -5.9757495210        2.5500389100        0.4937132096
 H         -6.4498316510        2.6736246996       -0.4804906505
 H         -6.3839535311        3.3177394001        1.1540874993
 C         -4.4615841410        2.7673178200        0.3626882496
 H         -3.9327277110        2.0436459802        0.9875753198
 H         -4.2017882211        3.7601570401        0.7370325393
 C         -3.9275738510        2.6691230396       -1.0664951904
 H         -2.8424319910        2.7990272296       -1.0353033904
 H         -4.3462155910        3.4774141093       -1.6703522907
 C         -4.2262058009        1.3343985693       -1.7618231600
 H         -5.2807707709        1.2775060592       -2.0304953300
 H         -3.6279832408        1.2824698691       -2.6748117199
 H         -5.8223469810        1.0295745604        2.0134361601
 H         -7.4352803310        1.2252656601        1.3254977900
 H         -6.6360315408       -0.8788552400        0.6021262007
 H         -6.5969788908        0.1866114495       -0.8134303797
 O         -4.3365027908       -1.3866858899        0.8190753709
 C         -3.0380506708       -1.8664733298        0.8394393511
 O         -2.8336172408       -2.7544676695        1.6912468314
 O         -1.6607780008        0.1844409094       -1.8163270395
 C         -0.7004578308       -1.9000416199       -0.0054015588
 C          0.2039614892       -0.8144245697        0.5245736709
 C          0.2333510191       -0.5726512293        1.8953563108
 C          1.0064335690        0.4473134309        2.4173042705
 C          1.7611177090        1.2533686907        1.5825873903
 C          1.7369739191        1.0212220202        0.2141300803
 C          0.9737844792       -0.0162195100       -0.3070110194
 H          0.9527013092       -0.1746455603       -1.3732969693
 N          2.4937116891        1.8427834000       -0.6424157799
 S          4.1263792191        2.0144625502       -0.3194154399
 O          4.3012034190        2.8520532606        0.8403096798
 O          4.7127556391        2.4965428698       -1.5491577300
 C          4.6856894791        0.3581599503        0.0307586506
 C          4.9236789992       -0.4877249400       -1.0345408191
 C          5.2871434993       -1.8000385499       -0.7808682987
 C          5.3938640292       -2.2449620095        0.5281641915
 C          5.1510529192       -1.3835487791        1.5866027412
 C          4.7927998691       -0.0678366192        1.3391055208
 H          4.6031837190        0.6338437610        2.1342115705
 H          5.2363458491       -1.7320319688        2.6032905213
 H          5.6701328293       -3.2691164194        0.7237262118
 H          5.4807949993       -2.4716310601       -1.6017842484
 H          4.8358060292       -0.1014401803       -2.0373851192
 H          2.3408572591        1.6476751897       -1.6211192699
 H          2.3607197490        2.0617999608        1.9687763300
 H          1.0174112490        0.6225242213        3.4825060004
 H         -0.3712472809       -1.1906264091        2.5450379610
 H         -0.7297888007       -2.7089630797        0.7364216914
 C         -0.2610653607       -2.4754351803       -1.3352395086
 C          0.9404711494       -3.3693204103       -1.3851726683
 C         -0.4295867706       -3.9426116504       -1.5855610282
 H         -0.7156543506       -4.2660531708       -2.5752563981
 H         -0.8575395406       -4.5386526302       -0.7926864780
 H          1.5980864894       -3.3030948205       -2.2382253683
 H          1.4451622993       -3.5757508700       -0.4536544282
 H         -0.4368848907       -1.8102061606       -2.1712093088
