  62
        -98.94060693
 C         -1.3434371676       -1.2246519345       -0.1844340067
 C         -2.4801857882       -1.2227782481        0.6595953956
 C         -3.2584461083        0.0255525388        0.7214690704
 C         -2.8552195415        1.0894644269        0.0018505528
 C         -3.4065102103        2.4978543172       -0.0784078493
 C         -4.8178195944        2.8153195299        0.4104479660
 C         -5.9400828085        2.1580089395       -0.3911485931
 H         -6.8885570048        2.3907700800        0.0981432284
 H         -5.9636764300        2.6026468541       -1.3892444370
 C         -5.8287558350        0.6450009708       -0.5624641010
 H         -4.9452461758        0.4065857443       -1.1580998334
 H         -6.6996185293        0.3085044694       -1.1316967616
 C         -5.7838556185       -0.1593994375        0.7356470665
 H         -5.8793034849       -1.2156359867        0.4697723109
 H         -6.6382129264        0.1048918092        1.3618180196
 C         -4.4978673467       -0.0071202042        1.5680866632
 H         -4.5450733005        0.8663602368        2.2142216673
 H         -4.4073015076       -0.8861107672        2.2128117208
 H         -4.9158984825        2.5742288610        1.4648177440
 H         -4.9405703124        3.8982752699        0.3215074030
 H         -2.7040445678        3.1254969365        0.4810594037
 H         -3.3189209034        2.7906407535       -1.1291772013
 O         -1.7474684606        1.0422146037       -0.7918776815
 C         -0.9670723035       -0.0952511390       -0.9105882498
 O         -0.0000462246        0.0346668174       -1.6836956473
 O         -2.8282450571       -2.2222014636        1.3436676090
 C         -0.4886983859       -2.4811131007       -0.2326598253
 C          0.8064825142       -2.1517299384        0.4650319074
 C          0.8707264213       -2.2201005701        1.8539224246
 C          2.0076018986       -1.8182265440        2.5303372959
 C          3.0983559196       -1.3213657554        1.8372921760
 C          3.0378009462       -1.2393993354        0.4527603603
 C          1.9088628392       -1.6741900922       -0.2274745978
 H          1.8758737284       -1.5957300980       -1.3022342433
 N          4.1286569064       -0.6938184918       -0.2600195631
 S          4.4854040051        0.9127123235        0.0558636306
 O          5.4219389889        1.3069108233       -0.9722070410
 O          4.9527807439        1.0236167210        1.4151675503
 C          2.9556730184        1.8095643329       -0.1347305146
 C          2.6807210800        2.4019952049       -1.3500513894
 C          1.4818864057        3.0751240638       -1.5122764645
 C          0.5776182012        3.1344811078       -0.4646322578
 C          0.8636300463        2.5250560141        0.7464052797
 C          2.0640308134        1.8556789910        0.9177454482
 H          2.3198433994        1.3745793062        1.8480457584
 H          0.1517278896        2.5594040366        1.5567568862
 H         -0.3608175486        3.6491584064       -0.5977702428
 H          1.2502177979        3.5411148084       -2.4565472972
 H          3.4114490281        2.3325374275       -2.1400956869
 H          4.0331001702       -0.8095660260       -1.2598676226
 H          3.9815277924       -0.9730146380        2.3478457536
 H          2.0441409587       -1.8833909620        3.6073920699
 H          0.0081237202       -2.5775459845        2.3987231027
 H         -1.0266046415       -3.2259172391        0.3683144248
 C         -0.3160876378       -3.0181344301       -1.6371572624
 C          0.2247221806       -4.4030054326       -1.8273956821
 C         -1.2165680363       -4.1144847821       -2.1183414357
 H         -1.5422831139       -4.0982097174       -3.1476848271
 H         -1.9617271534       -4.4883440500       -1.4315851620
 H          0.8902965292       -4.5890937724       -2.6564250229
 H          0.4592534003       -4.9712529027       -0.9399459939
 H         -0.0355651394       -2.2606497388       -2.3584805468
