  62
        -98.94530824
 C         -2.1397590052       -0.8957232495        0.0710649982
 C         -2.8443253559       -0.2153340434        1.0919641967
 C         -3.5700600397        0.9927810920        0.6781523645
 C         -3.4882135260        1.4022938579       -0.6011988526
 C         -4.2133842591        2.5872485838       -1.1690325573
 C         -5.5813523990        2.1824240211       -1.7362526486
 C         -6.4192445287        1.3327369637       -0.7807757258
 H         -5.9252650202        0.3694206441       -0.6348510003
 H         -7.3727324353        1.1337008151       -1.2745399959
 C         -6.6769075007        1.9818922436        0.5862096168
 H         -7.7296214715        1.8490519662        0.8440982139
 H         -6.4906543540        3.0548818787        0.5278690444
 C         -5.8591523890        1.3877161762        1.7343806631
 H         -5.9692049213        0.3004207480        1.7378910658
 H         -6.2716802752        1.7618121959        2.6750861211
 C         -4.3616365628        1.7200135445        1.7287672729
 H         -3.9468795387        1.4013795158        2.6897815958
 H         -4.2240029356        2.7995176118        1.6371936092
 H         -5.4195533162        1.6097374489       -2.6523531779
 H         -6.1289766116        3.0903858974       -1.9952839321
 H         -4.3384802634        3.3376841080       -0.3906694192
 H         -3.6057780911        3.0084296552       -1.9719766005
 O         -2.7616467040        0.7493532173       -1.5440907268
 C         -2.0753022966       -0.4175622177       -1.2380797484
 O         -1.4609153470       -0.9188179511       -2.1978549655
 H          0.0955865300       -0.1328006532        1.2671094454
 C          0.6956600782       -0.8243205966        0.6873753176
 C          0.0932092154       -1.9606252188        0.1602269545
 C          0.8730138274       -2.8381320107       -0.5804091599
 C          2.2138017386       -2.5698349679       -0.7980648324
 C          2.8063472106       -1.4343617718       -0.2778332604
 C          2.0369783776       -0.5529903545        0.4709921975
 N          2.6324676793        0.5987328126        1.0186230695
 S          3.4850843316        1.6060216915       -0.0223824490
 O          3.4490728213        2.9101812958        0.6043668831
 O          2.9804644073        1.5283347551       -1.3738809444
 C          5.1486350529        0.9750669430        0.0513764322
 C          5.7982873907        0.6075475556       -1.1106080668
 C          7.0953207695        0.1246494649       -1.0287746122
 C          7.7160554497        0.0198376267        0.2065314282
 C          7.0504094049        0.3958882353        1.3639139453
 C          5.7543822063        0.8804173089        1.2891364595
 H          5.2031702094        1.1865077668        2.1624874317
 H          7.5362794159        0.3126228975        2.3226759412
 H          8.7245674485       -0.3575556864        0.2676290974
 H          7.6141494652       -0.1675106302       -1.9276242878
 H          5.2723942807        0.7010259540       -2.0475787743
 H          1.9999791331        1.1431813512        1.5879066309
 H          3.8482048305       -1.2199106609       -0.4510364132
 H          2.8060437930       -3.2561039092       -1.3838284139
 H          0.4294874555       -3.7263224181       -0.9989347148
 C         -1.3793548997       -2.1627329204        0.4208743607
 H         -1.5186072986       -2.2965763935        1.5041262042
 C         -1.9707251030       -3.3565199857       -0.2977387200
 C         -1.8508439559       -4.7276487612        0.2953129046
 C         -3.1758337963       -4.0282270507        0.2869674186
 H         -3.9447565962       -4.3823224544       -0.3832020796
 H         -3.5565411764       -3.6387896450        1.2200408325
 H         -1.3332918855       -4.8200459193        1.2379890057
 H         -1.7118612005       -5.5666543660       -0.3694561594
 H         -1.9280603584       -3.2559707219       -1.3764356682
 O         -2.8594434428       -0.5966442326        2.2942153599
