  62
        -98.94332178
 C         -1.9420418407       -0.8497881093        0.0506941893
 C         -2.2362080906        0.1297687008        1.0271265891
 C         -2.6274353005        1.4497140808        0.5172242289
 C         -2.6389193904        1.6633427606       -0.8113434811
 C         -3.0664928103        2.9425911005       -1.4698503113
 C         -4.5676725503        2.9275136206       -1.7919137614
 C         -5.4477807804        2.5014685909       -0.6168661613
 H         -6.4858277104        2.5559043409       -0.9516248214
 H         -5.2405900405        1.4559227009       -0.3779140512
 C         -5.2732817904        3.3529856410        0.6483000685
 H         -6.2604366603        3.5885961512        1.0512641285
 H         -4.7914529603        4.2980276209        0.3955064884
 C         -4.4875154704        2.6694549411        1.7688748087
 H         -4.6072123704        3.2619202813        2.6798263286
 H         -4.9107147105        1.6807533112        1.9633508488
 C         -2.9815210605        2.5070992010        1.5248798087
 H         -2.5460802904        3.4681899909        1.2427151886
 H         -2.5223071205        2.1882336111        2.4656264388
 H         -4.7365582603        2.2309766305       -2.6162403613
 H         -4.8586612902        3.9256367406       -2.1240332915
 H         -2.8313645603        3.7779808206       -0.8131105714
 H         -2.5037073803        3.0539959304       -2.3981581413
 O         -2.3082065605        0.7097580604       -1.7191574010
 C         -1.9556783406       -0.5691155495       -1.3151352808
 O         -1.6869253906       -1.3478131297       -2.2499767507
 H          0.5715773193       -0.6210102395        0.2601512493
 C          0.8084604393       -1.6278496496       -0.0542306905
 C         -0.1742161808       -2.6088146395       -0.0148872104
 C          0.1585715591       -3.8967985796       -0.4161136202
 C          1.4395596391       -4.1850312798       -0.8539511801
 C          2.4124233592       -3.2045202098       -0.8957176002
 C          2.0890235092       -1.9105481498       -0.4993189904
 N          3.0442206993       -0.8843339499       -0.5758381805
 S          2.9048051394        0.4752480903        0.4057915293
 O          2.7027682993        0.0818234705        1.7831120593
 O          1.9215637495        1.3657615803       -0.1604503409
 C          4.5360079495        1.1673337101        0.2049487092
 C          5.5177360994        0.8603944602        1.1284489193
 C          6.7923494795        1.3743544400        0.9486544093
 C          7.0631896796        2.1803811299       -0.1468750408
 C          6.0674782196        2.4811533098       -1.0644690209
 C          4.7907522396        1.9707939900       -0.8902292609
 H          3.9825333196        2.1828577999       -1.5709141110
 H          6.2802493697        3.1107359097       -1.9133068810
 H          8.0556435396        2.5792469298       -0.2850781509
 H          7.5670383594        1.1451106101        1.6623848793
 H          5.2574022793        0.2385646903        1.9698400694
 H          3.9945566293       -1.2223806799       -0.6347804305
 H          3.4095167791       -3.4298855300       -1.2414555802
 H          1.6838626390       -5.1895536698       -1.1645062200
 H         -0.5868003410       -4.6746572995       -0.3884214301
 C         -1.5453278008       -2.2423261793        0.4994103595
 H         -1.4904754209       -2.1906079792        1.5984036095
 C         -2.6173504809       -3.2417568393        0.1121138296
 C         -2.9078760610       -4.4253330991        0.9845499897
 C         -3.8815611109       -3.2888485191        0.9154297895
 H         -4.8172380809       -3.4373102690        0.3976762695
 H         -3.9518993509       -2.6214095689        1.7622608094
 H         -3.1790481011       -5.3583587192        0.5139732499
 H         -2.3255628411       -4.5360987490        1.8869129998
 H         -2.7015914009       -3.3600796094       -0.9625553104
 O         -2.1794915007       -0.0923771990        2.2688235891
