  62
        -98.94121867
 C         -2.6993546184       -0.2807630663       -0.4495925200
 C         -2.9766963723        0.6349549378        0.6004994048
 C         -2.6637060193        2.0422784839        0.3423625919
 C         -2.1729982027        2.4032475400       -0.8565957345
 C         -1.7767298630        3.7929446567       -1.2725164492
 C         -0.3531333772        4.1691701224       -0.8377161988
 C         -0.1905067127        4.4684148315        0.6532456797
 H          0.7809753085        4.9504457664        0.7788416158
 H         -0.9537851009        5.1812058860        0.9683481315
 C         -0.2385560185        3.2259190005        1.5540244487
 H         -0.0545943948        2.3299730218        0.9538921683
 H          0.5720114258        3.2738682698        2.2857938977
 C         -1.5411907023        3.0555940836        2.3374223700
 H         -1.6403767092        3.8693935490        3.0597982192
 H         -1.4794968626        2.1159208830        2.8929770799
 C         -2.8083162673        3.0148799711        1.4731008242
 H         -3.0368923314        4.0100949937        1.0927374807
 H         -3.6378274003        2.6771845502        2.0993036423
 H         -0.0615893933        5.0584997315       -1.4015713795
 H          0.3236526971        3.3563817831       -1.1147766598
 H         -1.8242544163        3.8189044303       -2.3632119265
 H         -2.4872762702        4.5173232984       -0.8737078126
 O         -1.9812754724        1.5100674493       -1.8592316764
 C         -2.1689410496        0.1486393024       -1.6659069316
 O         -1.8360715432       -0.5359038504       -2.6564500647
 O         -3.4597993182        0.2819018973        1.7097153604
 C         -2.8646559464       -1.7524950165       -0.1019813268
 C         -1.5685983671       -2.2198943130        0.5200551183
 C         -1.5230188651       -2.7922862198        1.7848670316
 C         -0.3098053122       -3.0954285677        2.3801711155
 C          0.8816920107       -2.8121241438        1.7360685710
 C          0.8420173895       -2.2561833560        0.4662882904
 C         -0.3715126338       -1.9874713152       -0.1420975491
 H         -0.3828204148       -1.5402113734       -1.1260907048
 N          2.0610508578       -1.8680627110       -0.1636523566
 S          2.4226884222       -0.2639242392        0.2656675563
 O          2.3056495276       -0.1502777485        1.6970077145
 O          1.6314567330        0.6579806660       -0.5229131460
 C          4.1375265619       -0.1662886286       -0.2110104139
 C          4.4881160064        0.4412366629       -1.4004536928
 C          5.8234562239        0.4648932289       -1.7726657325
 C          6.7780377788       -0.1211122506       -0.9556163017
 C          6.4096532428       -0.7290147427        0.2355862143
 C          5.0771017894       -0.7544940018        0.6135681007
 H          4.7427520827       -1.2075784858        1.5318661667
 H          7.1550506008       -1.1825300527        0.8687193124
 H          7.8158168854       -0.1022599509       -1.2486866331
 H          6.1119359256        0.9384225182       -2.6973484094
 H          3.7124304217        0.8883122770       -2.0018992976
 H          1.9578760687       -1.8758961602       -1.1718250774
 H          1.8336507971       -2.9926484939        2.2070676740
 H         -0.2928200768       -3.5309896569        3.3675998022
 H         -2.4459715973       -2.9672672223        2.3178702377
 H         -3.6406980957       -1.7893282370        0.6747160433
 C         -3.2845480877       -2.6487250131       -1.2470458586
 C         -3.9440811600       -3.9580563744       -0.9362174255
 C         -4.7420699807       -2.8400385913       -1.5351701543
 H         -5.0539360392       -2.9178806977       -2.5655682794
 H         -5.4481224596       -2.3210326620       -0.9035664491
 H         -3.7083733276       -4.8105516151       -1.5541649400
 H         -4.1124326057       -4.1997359483        0.1021548747
 H         -2.6128111807       -2.6101532482       -2.0941646879
