  62
        -98.94135609
 C         -1.8926815486       -0.5951588130       -0.0067935165
 C         -2.6298507954       -0.1643843024        1.1255301391
 C         -3.7195968271        0.7827486244        0.8662306698
 C         -3.9136730302        1.2482438129       -0.3806396190
 C         -4.9672873603        2.2356183474       -0.8033603015
 C         -6.3360001022        1.6021649793       -1.0886456464
 C         -7.1071647280        1.1345110952        0.1464371796
 H         -7.1622839974        1.9494692799        0.8689040427
 H         -8.1269898276        0.9164894032       -0.1767504883
 C         -6.5256228189       -0.1159468132        0.8208677565
 H         -5.8461709230       -0.6192134521        0.1288512263
 H         -7.3320811742       -0.8182119324        1.0434516256
 C         -5.7870401043        0.1559573194        2.1315709454
 H         -5.3860928932       -0.7910753495        2.5021885674
 H         -6.4896844411        0.5374490859        2.8756408567
 C         -4.6225394555        1.1471529931        2.0056579916
 H         -5.0026567940        2.1610344754        1.8818124426
 H         -4.0329089950        1.1034299589        2.9247476177
 H         -6.1959355938        0.7608271653       -1.7714200116
 H         -6.9399233861        2.3516478584       -1.6053665708
 H         -4.6049299593        2.7021028597       -1.7221043506
 H         -5.0739080774        3.0078836230       -0.0407978965
 O         -3.1297125523        0.8782112347       -1.4265335752
 C         -2.1150778421       -0.0621811192       -1.2778731617
 O         -1.5046058702       -0.3101654198       -2.3331036924
 O         -2.3822458370       -0.5480827957        2.3000214897
 C         -0.7861677978       -1.6093290814        0.2215500595
 C          0.4821178010       -1.1589745140       -0.4580772554
 C          1.1355155183       -1.8905675819       -1.4399724345
 C          2.2888999167       -1.3996387020       -2.0277007972
 C          2.8177706838       -0.1805217656       -1.6479707823
 C          2.1779451270        0.5545909365       -0.6572439754
 C          1.0275274355        0.0578200343       -0.0648801580
 H          0.5248262164        0.6358799591        0.7012276677
 N          2.7071732056        1.7917135476       -0.2574802250
 S          4.3621275203        1.9479255633       -0.0898906129
 O          4.5420248936        3.0093427188        0.8761382916
 O          4.9668884142        2.1652145051       -1.3806160731
 C          4.9215515155        0.3926315190        0.5828304961
 C          5.8516211661       -0.3601924378       -0.1044177582
 C          6.2565625676       -1.5742965980        0.4270584709
 C          5.7238794863       -2.0137315113        1.6287706235
 C          4.7925228853       -1.2441711517        2.3093995336
 C          4.3861070596       -0.0285638837        1.7840041271
 H          3.6677316423        0.5947741753        2.2921835599
 H          4.3792832799       -1.5870797380        3.2444030336
 H          6.0359600861       -2.9608838506        2.0395030874
 H          6.9822375933       -2.1733816815       -0.0989062496
 H          6.2371529210        0.0180801121       -1.0372058009
 H          2.2093069036        2.2339162013        0.5000157231
 H          3.7005189929        0.2239188903       -2.1159599546
 H          2.7788864752       -1.9716911975       -2.8006517993
 H          0.7263849571       -2.8315967132       -1.7679182439
 H         -0.6133947927       -1.5768582106        1.3106699674
 C         -1.1761330945       -3.0425147381       -0.1072627519
 C         -2.6014680455       -3.4944154531       -0.0042831175
 C         -1.9383705593       -3.4067096678       -1.3445508187
 H         -1.6845082125       -4.3271397124       -1.8499368795
 H         -2.2219133448       -2.6079214442       -2.0115427783
 H         -2.8025966384       -4.4709663711        0.4099623186
 H         -3.3453477697       -2.7524359115        0.2481120746
 H         -0.4250162757       -3.7515715724        0.2267388161
