  62
        -98.94521236
 C         -2.0774053812       -1.4641317871       -0.0088988654
 C         -1.8919243846       -0.4705557725       -1.0005510307
 C         -2.7888404435        0.6925726098       -0.9186046390
 C         -3.6963778205        0.7641309911        0.0714292866
 C         -4.6226163796        1.9208736311        0.3071092824
 C         -3.9926336994        2.9551204752        1.2507512705
 C         -2.5719570613        3.3653226677        0.8619068536
 H         -2.2496948218        4.1237212756        1.5784608654
 H         -1.9067264441        2.5066327701        0.9783338723
 C         -2.4396989816        3.9168130168       -0.5644417664
 H         -1.8197321205        4.8151313892       -0.5395209683
 H         -3.4200462214        4.2134543651       -0.9390809529
 C         -1.7885252351        2.9519747517       -1.5567867169
 H         -0.8517583566        2.5737836713       -1.1406687694
 H         -1.5456955384        3.5104005770       -2.4646395248
 C         -2.6439703361        1.7506338604       -1.9763500832
 H         -3.6247217950        2.0932105681       -2.3128023589
 H         -2.1427523479        1.2652063545       -2.8188281384
 H         -4.6355403033        3.8370670355        1.2718293164
 H         -3.9639597280        2.5320061311        2.2575280134
 H         -4.8669883840        2.3845990580       -0.6466574783
 H         -5.5395022321        1.5400153139        0.7601629193
 O         -3.8400553322       -0.2044186842        1.0112013633
 C         -3.0412865737       -1.3330824168        0.9960910372
 O         -3.2827366453       -2.1419290046        1.9142551902
 O         -1.0334162075       -0.5341500989       -1.9203070156
 C         -1.2351324631       -2.7306856262        0.0413365425
 C          0.1479949246       -2.3927201232        0.5438033438
 C          0.4427503689       -2.5229909836        1.8971848069
 C          1.6955121678       -2.1916525725        2.3808813356
 C          2.6772550088       -1.7171188711        1.5286177458
 C          2.3848844463       -1.5597663280        0.1797334565
 C          1.1304870210       -1.9064395032       -0.3059576445
 H          0.9069508077       -1.7666391170       -1.3518393272
 N          3.3651480258       -1.0766465170       -0.7055777283
 S          4.2583137489        0.2844041733       -0.3311582767
 O          4.9563423167        0.6201468761       -1.5505326789
 O          5.0812841443        0.0102802809        0.8203020280
 C          3.0799164417        1.5642921713        0.0606901664
 C          2.5895396452        1.6688327645        1.3470032672
 C          1.6565762924        2.6542508209        1.6288134320
 C          1.2388668822        3.5182083062        0.6288310243
 C          1.7429878281        3.4017952202       -0.6577190661
 C          2.6663521633        2.4111298182       -0.9484811181
 H          3.0863882140        2.2894089834       -1.9339243422
 H          1.4176289342        4.0766234036       -1.4331460753
 H          0.5154477808        4.2859261577        0.8529574947
 H          1.2605216605        2.7453272723        2.6276483436
 H          2.9479876745        0.9917353895        2.1043938873
 H          3.0443406948       -1.0256115072       -1.6618387323
 H          3.6611691872       -1.4637382874        1.8890275526
 H          1.9132874122       -2.3085597270        3.4318701964
 H         -0.3257398876       -2.8804709648        2.5680617376
 H         -1.7140305853       -3.3734750937        0.7916107685
 C         -1.2199010733       -3.4694405870       -1.2817509582
 C         -0.7621663702       -4.8956027256       -1.3110506579
 C         -2.2102066788       -4.5683752828       -1.5161723747
 H         -2.6307183440       -4.6806596626       -2.5043581056
 H         -2.9034604760       -4.7964361600       -0.7194735421
 H         -0.1860436571       -5.2359307711       -2.1578487063
 H         -0.4722685317       -5.3451838622       -0.3732299230
 H         -0.9735510337       -2.8427192397       -2.1285672463
