  62
        -98.94082441
 C         -2.3186614380        0.3461422641       -0.2888927165
 C         -3.5457094858        0.8421556262       -0.7903447107
 C         -4.7065199905       -0.0447596659       -0.6409827933
 C         -4.5418674306       -1.2504744294       -0.0662443334
 C         -5.6476620400       -2.2305240452        0.1970306540
 C         -6.2580377154       -2.0194767118        1.5897349890
 C         -6.6229055524       -0.5657567968        1.8907903665
 H         -7.0710168733       -0.5428756425        2.8865303369
 H         -5.7075428469        0.0288310692        1.9372776559
 C         -7.5888171568        0.0691707186        0.8806556649
 H         -8.3587286770        0.6162580601        1.4287431096
 H         -8.0913029499       -0.7110298197        0.3078998880
 C         -6.9360907994        1.0630237045       -0.0817376701
 H         -6.3530552106        1.7931567248        0.4852282362
 H         -7.7304596787        1.6084538857       -0.5980504928
 C         -6.0282154673        0.4518755557       -1.1563986010
 H         -6.5617226537       -0.3439586579       -1.6799254144
 H         -5.7905913119        1.2394959520       -1.8774622816
 H         -7.1483876459       -2.6452013035        1.6745692052
 H         -5.5353483020       -2.3528253412        2.3381759438
 H         -6.4141557115       -2.1188737914       -0.5674003244
 H         -5.2336555167       -3.2385752149        0.1403523804
 O         -3.3430283519       -1.7001031250        0.3873035074
 C         -2.2029628199       -0.9147842248        0.2952609669
 O         -1.1739676159       -1.4465508045        0.7553249879
 O         -3.6617564659        1.9694134959       -1.3426040295
 C         -1.0807412877        1.2162871703       -0.3924722799
 C          0.0115408415        0.5072304495       -1.1544774382
 C         -0.3043974539       -0.1497506691       -2.3411022141
 C          0.6698907991       -0.8116063275       -3.0619450667
 C          1.9806238891       -0.8290475992       -2.6188929475
 C          2.3123084791       -0.1574998685       -1.4483430225
 C          1.3303237745        0.5087215206       -0.7275994414
 H          1.6118179872        1.0146197356        0.1798076113
 N          3.6508068747       -0.1098029272       -1.0196803059
 S          4.0354001934       -0.0809314627        0.6224073782
 O          3.4787520895       -1.2318755842        1.2983245123
 O          3.6946592952        1.2096147396        1.1647924331
 C          5.8096000599       -0.2271412913        0.5087250016
 C          6.5357340593        0.8887326915        0.1368555505
 C          7.9120870504        0.7831346145        0.0171428986
 C          8.5365077852       -0.4295413054        0.2698108379
 C          7.7951428588       -1.5397308288        0.6447395477
 C          6.4175091316       -1.4412122271        0.7647247497
 H          5.8009553728       -2.2751336971        1.0600503885
 H          8.2835746503       -2.4799907654        0.8440387625
 H          9.6080766102       -0.5092060006        0.1765771228
 H          8.4922752966        1.6446784589       -0.2715423238
 H          6.0078888824        1.8110496872       -0.0406829029
 H          4.2310832620       -0.7836810240       -1.5016122175
 H          2.7405485929       -1.3538986630       -3.1777451526
 H          0.4065569598       -1.3253947940       -3.9744476319
 H         -1.3300762094       -0.1430611966       -2.6849003496
 H         -1.3900658627        2.0965717376       -0.9770435480
 C         -0.6482894219        1.6769752560        0.9840516336
 C          0.0380952892        2.9971758723        1.1609658487
 C         -1.3718700051        2.8164426638        1.6345751849
 H         -1.5602756762        2.7686020628        2.6966938837
 H         -2.1643557610        3.2850900793        1.0693143754
 H          0.8285482890        3.0699564195        1.8931792453
 H          0.2022423102        3.5951848644        0.2772437631
 H         -0.3383968157        0.8530879849        1.6194238701
