  62
        -98.93488552
 C         -2.5634657430       -1.1470868960        0.5263483160
 C         -2.7617547796       -0.5419784607       -0.7403159846
 C         -3.5129424273        0.7245311637       -0.7327841473
 C         -3.9480943774        1.2336394569        0.4327447765
 C         -4.6853219051        2.5320837425        0.5839990704
 C         -3.7184702687        3.6975257984        0.8350454007
 C         -2.5459502481        3.7522407189       -0.1448278977
 H         -1.9018637731        2.8831797153        0.0137357563
 H         -1.9520147706        4.6339135915        0.1071343781
 C         -2.9551243778        3.8166593764       -1.6230361220
 H         -2.3421958538        4.5710959522       -2.1205895926
 H         -3.9948035186        4.1358524851       -1.7058483063
 C         -2.7619979943        2.5085130831       -2.3924676106
 H         -1.7480838780        2.1341785376       -2.2259253402
 H         -2.8600520103        2.7250539461       -3.4595726610
 C         -3.7538298451        1.3864446740       -2.0601115408
 H         -3.6311157110        0.6019223317       -2.8122669719
 H         -4.7750195132        1.7676640759       -2.1222657607
 H         -3.3138318069        3.6020979662        1.8455084454
 H         -4.2817826046        4.6309762240        0.7816680203
 H         -5.2687867397        2.7181741434       -0.3154807295
 H         -5.3628676989        2.4450661585        1.4351636712
 O         -3.7201203006        0.6346652403        1.6304287798
 C         -3.0066075036       -0.5483260165        1.7069877051
 O         -2.8346869268       -0.9653863722        2.8725158522
 H          0.0831611107       -1.1827833761        1.9645511919
 C          0.4511313637       -1.4786718379        0.9886568672
 C         -0.3893646657       -2.2046191529        0.1471530415
 C          0.0903658163       -2.5406528435       -1.1120780030
 C          1.3687437848       -2.1727894540       -1.4994175031
 C          2.1959874584       -1.4561370416       -0.6559738216
 C          1.7235217547       -1.0963440294        0.5992494233
 N          2.5482563629       -0.3461909671        1.4627791347
 S          3.0856238601        1.1338787100        0.8682892685
 O          3.3550904439        1.9401163931        2.0395695379
 O          2.1575027146        1.6861065031       -0.0922438238
 C          4.6273574108        0.7289731275        0.0755412747
 C          5.5991899274        0.1010513225        0.8301087494
 C          6.8056765059       -0.2227737423        0.2305623021
 C          7.0199257419        0.0882968583       -1.1041781684
 C          6.0356295435        0.7225734820       -1.8466073773
 C          4.8253622924        1.0477238156       -1.2534794737
 H          4.0274056557        1.5331191758       -1.7925998372
 H          6.2037044667        0.9636139540       -2.8839699220
 H          7.9595167659       -0.1656035542       -1.5689021608
 H          7.5732920190       -0.7164033920        0.8043382607
 H          5.3922853261       -0.1194612542        1.8639765973
 H          2.1456606872       -0.2176608416        2.3808773986
 H          3.1872328556       -1.1633422895       -0.9612477235
 H          1.7200832954       -2.4436721969       -2.4834607788
 H         -0.5341646831       -3.0578999729       -1.8169563560
 C         -1.7795150612       -2.4474275223        0.6823872867
 H         -1.6710560002       -2.5702432260        1.7715971776
 C         -2.5953937312       -3.6514183987        0.2349645080
 C         -2.9063490071       -4.0370858797       -1.1783888685
 C         -2.0026722678       -4.8987715247       -0.3486127211
 H         -2.3832746519       -5.8488248877       -0.0039824424
 H         -0.9466256297       -4.9030619004       -0.5657006572
 H         -2.5040774241       -3.4336813803       -1.9745552755
 H         -3.9054154547       -4.3963019001       -1.3822300381
 H         -3.4127211158       -3.8011048747        0.9375400513
 O         -2.3447934642       -1.0177938316       -1.8243807521
