  62
        -98.94434059
 C         -1.3956739558       -1.5008657961       -0.1498588095
 C         -1.3576148067       -0.0854881981       -0.1001488883
 C         -2.5308538980        0.5654357678        0.5049052743
 C         -3.5413870451       -0.1876651728        0.9734934372
 C         -4.8166731733        0.3510993889        1.5528921954
 C         -5.8873727303        0.5302581149        0.4672278694
 C         -5.3932688913        1.2758873859       -0.7726372538
 H         -4.6388603262        0.6676341861       -1.2768503735
 H         -6.2408872276        1.3665758214       -1.4555880324
 C         -4.8138478333        2.6687168718       -0.4883185440
 H         -5.1419826248        3.0120312633        0.4934133742
 H         -5.2109755726        3.3692772913       -1.2260028606
 C         -3.2882482949        2.7503496797       -0.5702334285
 H         -2.9489361127        2.3219729622       -1.5164080000
 H         -3.0053829348        3.8060591360       -0.5678251966
 C         -2.5226468392        2.0668152689        0.5693573214
 H         -1.4723280050        2.3609348247        0.4882617623
 H         -2.9069502545        2.4130164612        1.5306374929
 H         -6.7339884983        1.0646067427        0.9022536383
 H         -6.2337652245       -0.4581739174        0.1562557067
 H         -5.1828238800       -0.3569135741        2.2982525610
 H         -4.6150136044        1.3035651665        2.0390412194
 O         -3.5351073166       -1.5446580482        0.9243225938
 C         -2.4706367094       -2.2301264258        0.3659193660
 O         -2.5981100467       -3.4714902720        0.3832211501
 H          1.7192906148       -0.4403835913       -0.4501945329
 C          1.8294420795       -1.2631403291        0.2347055792
 C          0.9132798373       -2.3049073769        0.2204553679
 C          1.0605100731       -3.3400908683        1.1387712982
 C          2.1092350865       -3.3375644232        2.0397636786
 C          3.0299446577       -2.3052281141        2.0416428852
 C          2.8824822328       -1.2574992446        1.1383692662
 N          3.7721814319       -0.1809018454        1.1585920015
 S          4.0065823743        0.8562100413       -0.1236697949
 O          4.0259921011        0.1597945622       -1.3889284412
 O          5.2301936304        1.5523347559        0.2227985435
 C          2.6610072921        2.0166399303       -0.0499989477
 C          2.0625207974        2.4364704133       -1.2191066874
 C          1.0619493445        3.3917817318       -1.1548576719
 C          0.6805400167        3.9081584854        0.0724555328
 C          1.2895738933        3.4730089258        1.2395299175
 C          2.2922987185        2.5201289977        1.1808255396
 H          2.7857339723        2.1582590992        2.0679163778
 H          0.9806808102        3.8693746786        2.1939144565
 H         -0.1007100460        4.6511194075        0.1205266799
 H          0.5771360800        3.7213237329       -2.0598775574
 H          2.3799681453        1.9994345458       -2.1528572205
 H          4.5816355734       -0.2764750141        1.7515876674
 H          3.8525109966       -2.3039958269        2.7404548903
 H          2.2149876334       -4.1492854238        2.7437175360
 H          0.3361710965       -4.1425374700        1.1435160938
 C         -0.2544218880       -2.3179537178       -0.7370232564
 H         -0.6277238008       -3.3494627124       -0.7945842483
 C          0.1295168106       -1.8692344386       -2.1322169366
 C          0.9427779382       -2.7889468035       -2.9903635830
 C         -0.4976468996       -2.5353910964       -3.3180310336
 H         -0.7328007530       -1.9338191367       -4.1833387661
 H         -1.2093998953       -3.3264562045       -3.1300352267
 H          1.2068263090       -3.7515654504       -2.5783940387
 H          1.7036932553       -2.3612604913       -3.6253215697
 H          0.3254907433       -0.8079309929       -2.2099070417
 O         -0.4103991511        0.6164007858       -0.5379802542
