  62
        -98.93703447
 C         -1.6948619794        0.4314364898        0.3028079467
 C         -2.9344307802        0.8908853044        0.8043014745
 C         -4.1189942478        0.6122079192       -0.0244887299
 C         -3.9671740174       -0.0339220921       -1.1934204533
 C         -5.0203320166       -0.3842746000       -2.2149973892
 C         -6.3594991374       -0.9266119986       -1.6971613152
 C         -6.2674362627       -1.7712269107       -0.4179728297
 H         -6.7937423633       -2.7142627654       -0.5769195756
 H         -5.2251589325       -2.0119581574       -0.2021903280
 C         -6.8939223803       -1.0834755418        0.7974244144
 H         -7.8366422579       -0.6236771767        0.4926279826
 H         -7.1285332683       -1.8418415993        1.5482903888
 C         -6.0204348210       -0.0296285065        1.4770544528
 H         -6.6218519081        0.4607672042        2.2464053646
 H         -5.1832890079       -0.5146030314        1.9864197176
 C         -5.4378112939        1.0472223805        0.5471728164
 H         -5.2266786382        1.9336770042        1.1516826951
 H         -6.1451749548        1.3200997861       -0.2321959285
 H         -7.0468882379       -0.0991756345       -1.5268243070
 H         -6.7870967902       -1.5285868324       -2.5007795057
 H         -4.5499591221       -1.1284273081       -2.8620749151
 H         -5.2068821144        0.5023856784       -2.8279807999
 O         -2.7493964310       -0.4496463506       -1.6433667567
 C         -1.5885696200       -0.2348767702       -0.9169240562
 O         -0.5566173158       -0.6768451809       -1.4545980109
 O         -3.0468842498        1.5202448118        1.8908216170
 C         -0.4337182742        0.6837125633        1.1089467266
 C          0.5353317319        1.5047587941        0.2957372549
 C          0.0969478008        2.7070921714       -0.2548315252
 C          0.9437881728        3.4813103859       -1.0226834081
 C          2.2469569775        3.0766298939       -1.2552102354
 C          2.6963893279        1.8815364984       -0.7073537889
 C          1.8424153899        1.1075723685        0.0678620623
 H          2.2101464479        0.1892542828        0.4910581781
 N          3.9959077842        1.4306907196       -0.9600831559
 S          4.8232476821        0.4407303505        0.0931402840
 O          4.6194229410        0.8294180513        1.4692948676
 O          6.1916058541        0.4877005927       -0.3769269338
 C          4.1616724386       -1.1870958048       -0.1916609519
 C          3.9590928202       -2.0257229682        0.8863270948
 C          3.4582093904       -3.2980296749        0.6625543024
 C          3.1742408030       -3.7087971538       -0.6306149011
 C          3.3907392543       -2.8574215524       -1.7030769777
 C          3.8910633427       -1.5839512045       -1.4855650028
 H          4.0623987393       -0.8957440927       -2.2963047224
 H          3.1641293580       -3.1791872926       -2.7067685537
 H          2.7789034737       -4.6974561461       -0.8033911414
 H          3.2878423406       -3.9619721578        1.4952623157
 H          4.1865004504       -1.6602158988        1.8754990676
 H          4.5946952813        2.0621744853       -1.4693500528
 H          2.9083122686        3.6776016988       -1.8604846509
 H          0.5892605512        4.4098302432       -1.4446112037
 H         -0.9219758054        3.0222815110       -0.0750195834
 H         -0.7531038062        1.2873267321        1.9716558560
 C          0.1420087760       -0.6221321145        1.6143162601
 C          0.9839950186       -0.6429665417        2.8535720551
 C         -0.4016308711       -1.2125197544        2.8795443239
 H         -0.5179940353       -2.2840417055        2.9403046327
 H         -1.1739051341       -0.6592168719        3.3939041419
 H          1.8202582063       -1.3237137455        2.8963702228
 H          1.1610927449        0.2972441732        3.3537605443
 H          0.3955477994       -1.3061214630        0.8115620286
