  62
        -98.94022415
 C         -1.3984479179       -1.6341449304       -0.3744018995
 C         -0.6781943100       -2.0297071553        0.7788973132
 C          0.6791900971       -2.5780202413        0.5545055623
 C          1.1473794735       -2.6899884612       -0.6995972104
 C          2.4992373116       -3.1615906172       -1.1626634324
 C          3.4889001464       -1.9890011741       -1.2733457441
 C          4.2774309321       -1.6867607667       -0.0008663997
 H          4.9792398308       -2.5017531246        0.1900165940
 H          4.8630549612       -0.7835085475       -0.1873588635
 C          3.4339533611       -1.4679505572        1.2566237020
 H          4.0519882429       -0.9427178061        1.9883698306
 H          2.5893284003       -0.8109849179        1.0386330102
 C          2.9263402076       -2.7756022243        1.8820408240
 H          3.4357510835       -3.6228638273        1.4236416921
 H          3.1872573753       -2.7935732988        2.9428404691
 C          1.4098754914       -2.9713434812        1.8099361704
 H          1.1731045175       -4.0190294444        2.0306956553
 H          0.9404998555       -2.3762390051        2.6007684777
 H          2.9314423093       -1.0985420070       -1.5730778752
 H          4.2050372273       -2.2115533367       -2.0669595281
 H          2.8836369916       -3.9417922562       -0.5130057032
 H          2.3469502550       -3.5825061145       -2.1589000565
 O          0.4092343601       -2.3198953785       -1.7843377734
 C         -0.8535009388       -1.7777944478       -1.6534210964
 O         -1.3909334597       -1.4693109583       -2.7359273665
 H         -1.1618983911        0.4685296985        1.3203423710
 C         -1.7163430785        1.0969228752        0.6410247612
 C         -2.6064975272        0.5337043748       -0.2619221396
 C         -3.3273059870        1.3750656547       -1.1011941861
 C         -3.1516655678        2.7458790254       -1.0433841666
 C         -2.2308262920        3.3000089208       -0.1724653750
 C         -1.5032302681        2.4676587037        0.6701938113
 N         -0.5340598877        2.9935096396        1.5444281800
 S          1.0018486386        2.3226493791        1.5257115294
 O          0.9850306510        1.0113919661        2.1136111674
 O          1.8320968459        3.3099686075        2.1814072257
 C          1.4240025294        2.2342850212       -0.2042916227
 C          2.0197383878        3.3289894893       -0.8000329740
 C          2.2782265115        3.2942464145       -2.1605382435
 C          1.9207093231        2.1788597530       -2.9035416925
 C          1.3203564265        1.0889440197       -2.2923179323
 C          1.0750161849        1.1126767178       -0.9282752625
 H          0.6172735165        0.2753518268       -0.4242677910
 H          1.0263276112        0.2226734710       -2.8659830569
 H          2.1101385449        2.1540803034       -3.9650025651
 H          2.7503865922        4.1368011173       -2.6394771122
 H          2.2805390064        4.1746516330       -0.1844266288
 H         -0.4683453684        4.0016756658        1.5242671716
 H         -2.0722417426        4.3672882987       -0.1445371503
 H         -3.7203765255        3.3883063299       -1.6978746583
 H         -4.0170352958        0.9467292073       -1.8127844881
 C         -2.7653061913       -0.9679105986       -0.3446468024
 H         -3.2306829417       -1.1966852514       -1.3138979090
 C         -3.6876306037       -1.4606840637        0.7520624557
 C         -5.1697788593       -1.3650783337        0.5553710023
 C         -4.4946003427       -2.7028972682        0.5310191538
 H         -4.6391057966       -3.3751747080        1.3631545563
 H         -4.3889414718       -3.2039024951       -0.4204996260
 H         -5.7846252097       -1.1148393947        1.4061304425
 H         -5.5292491412       -0.9645740082       -0.3802514681
 H         -3.2989821509       -1.2920612470        1.7475855282
 O         -1.1183283841       -1.9376321585        1.9551414413
