  62
        -98.94124399
 C         -1.7820512557       -0.0526995785        0.3933728022
 C         -2.9301996994       -0.4151461253        1.1467488222
 C         -4.1901365305        0.2413022513        0.7760587261
 C         -4.1823119967        1.1744902245       -0.1924361386
 C         -5.3977684109        1.8892462676       -0.7057232368
 C         -6.0207566253        1.1412363457       -1.8928021823
 C         -6.2290413112       -0.3523374182       -1.6416072684
 H         -6.7024530134       -0.7688529220       -2.5333699292
 H         -5.2547686811       -0.8359881754       -1.5403043763
 C         -7.0856515896       -0.6759218431       -0.4094503670
 H         -7.8060165268       -1.4515079338       -0.6780497870
 H         -7.6551908035        0.2054996354       -0.1125483795
 C         -6.2968092583       -1.1979946774        0.7929715341
 H         -5.6550987787       -2.0250184328        0.4784544300
 H         -7.0096736333       -1.5963598308        1.5197888586
 C         -5.4298301090       -0.1639915452        1.5224506705
 H         -6.0330497805        0.7113873747        1.7716707032
 H         -5.0829541563       -0.6189873501        2.4548545300
 H         -6.9776846263        1.6088434141       -2.1315753976
 H         -5.3623926439        1.2547111968       -2.7573604478
 H         -6.1241007418        1.9846247797        0.0991549844
 H         -5.0981066552        2.8865271580       -1.0323961239
 O         -3.0558944444        1.5416453580       -0.8507585688
 C         -1.8303935519        0.9360462652       -0.5913629148
 O         -0.9039171640        1.3727098956       -1.2982998594
 H          1.4722659910        0.0656635273       -0.9778768504
 C          1.5431753587        0.5587279371       -0.0207582577
 C          0.6174229932        0.2695155525        0.9695063213
 C          0.7148791737        0.9396033205        2.1847585061
 C          1.7162526077        1.8680050318        2.4056451359
 C          2.6393422530        2.1528123467        1.4140725855
 C          2.5374268301        1.5020190490        0.1936605737
 N          3.4981091031        1.7721630033       -0.8136509890
 S          4.9637686323        1.0068060582       -0.5433206349
 O          5.5678367842        1.5731245549        0.6352402131
 O          5.7162420744        1.1228181318       -1.7718942542
 C          4.5178251688       -0.6950294725       -0.2454666457
 C          4.1872942740       -1.0847925962        1.0370708012
 C          3.7325888380       -2.3766195837        1.2474795177
 C          3.6128289161       -3.2498994776        0.1770436966
 C          3.9514334849       -2.8438459562       -1.1048931607
 C          4.4017444249       -1.5516249107       -1.3219013134
 H          4.6747233742       -1.1952776272       -2.3024727814
 H          3.8585764514       -3.5267604736       -1.9341964963
 H          3.2523867440       -4.2531588414        0.3432812680
 H          3.4643331985       -2.6938018292        2.2424747836
 H          4.2931497562       -0.3760829284        1.8420936463
 H          3.1636082055        1.5333812442       -1.7372942896
 H          3.4385134332        2.8594162823        1.5690532942
 H          1.7800816427        2.3740215627        3.3570491342
 H         -0.0076802528        0.7236183789        2.9596447773
 C         -0.4773513831       -0.7415766632        0.7559906954
 H         -0.6895891757       -1.2223789740        1.7243025441
 C         -0.0546250823       -1.8524524602       -0.1951437361
 C         -1.0725049135       -2.7851789191       -0.7773294964
 C         -0.3378918196       -1.8287174779       -1.6659630846
 H          0.4133690815       -2.2252340982       -2.3335774834
 H         -0.8725784887       -0.9821875997       -2.0676357710
 H         -2.1111884729       -2.5825140798       -0.5597718034
 H         -0.8357484637       -3.8362300627       -0.8405707286
 H          0.8917627297       -2.2926820978        0.1051453610
 O         -2.9006157125       -1.2512233213        2.0882327699
