  62
        -98.94691814
 C         -1.2695571654       -0.7560974862        0.6171517631
 C         -2.1298439771       -0.7128618318       -0.5058603388
 C         -2.8803142288        0.5361340365       -0.6861493425
 C         -2.6655144686        1.5733282145        0.1425729549
 C         -3.3281469890        2.9221183049        0.0647092358
 C         -4.7063997533        2.9829982479        0.7378562785
 C         -5.8296549208        2.2657526184       -0.0120789668
 H         -6.7696601548        2.5718185581        0.4512835084
 H         -5.8496463514        2.6087079898       -1.0469969757
 C         -5.7374451736        0.7339510513        0.0234377171
 H         -5.0591782421        0.4286098058        0.8233617246
 H         -6.7188894130        0.3155736729        0.2573147714
 C         -5.2736594599        0.0966426767       -1.2863572903
 H         -5.2093289031       -0.9841605826       -1.1378554791
 H         -6.0122770582        0.2861094698       -2.0683241061
 C         -3.9057678997        0.5882079623       -1.7782912790
 H         -3.9882173622        1.6000963779       -2.1752891139
 H         -3.5683415674       -0.0743969477       -2.5793498991
 H         -4.6204097363        2.5715951011        1.7461784825
 H         -4.9760017902        4.0375796817        0.8307435499
 H         -3.4154031246        3.2256692361       -0.9791422773
 H         -2.6625277491        3.6237903004        0.5725315396
 O         -1.7751982335        1.5169865699        1.1679716787
 C         -1.0636677493        0.3576674075        1.4304809651
 O         -0.2855629719        0.4455158423        2.4033504430
 O         -2.2702617305       -1.6639716836       -1.3187817669
 C         -0.4470085940       -2.0025665647        0.9029398662
 C          0.5195500058       -2.2031198410       -0.2399356148
 C          0.6100996858       -3.3613198523       -0.9981236804
 C          1.4834084042       -3.4194098704       -2.0718756406
 C          2.2732254467       -2.3363964449       -2.4091551655
 C          2.2033900827       -1.1767356864       -1.6413765432
 C          1.3456656151       -1.1314173463       -0.5564444108
 H          1.2749670963       -0.2296238075        0.0302848128
 N          3.0089405178       -0.0751004992       -1.9400891124
 S          2.8286712893        1.4433193049       -1.2807795123
 O          1.4441240763        1.8349724198       -1.1524673503
 O          3.6466924817        2.2820719650       -2.1321967468
 C          3.6213907198        1.2923982814        0.3066959567
 C          2.9041636787        1.3988407761        1.4800938287
 C          3.5702694479        1.2496478447        2.6874852592
 C          4.9335583111        1.0024778354        2.7014848319
 C          5.6426655634        0.9058281076        1.5129852687
 C          4.9824987980        1.0504361550        0.3047487716
 H          5.4954909740        0.9915421570       -0.6407613931
 H          6.7038224064        0.7162513219        1.5265422794
 H          5.4446575834        0.8857561633        3.6441109020
 H          3.0088554123        1.3214371056        3.6054516685
 H          1.8404988340        1.5823623706        1.4502538811
 H          3.4933895804       -0.0906786392       -2.8229972115
 H          2.9352471988       -2.3800785937       -3.2601482229
 H          1.5392236828       -4.3201205644       -2.6643810503
 H         -0.0127452554       -4.2087921800       -0.7644219062
 H          0.1373461169       -1.7805306504        1.8077012894
 C         -1.3401632258       -3.1932517600        1.1739770353
 C         -0.8328887657       -4.3357556254        1.9999577615
 C         -1.8647550967       -3.4053023768        2.5611764237
 H         -2.8759609921       -3.7644189413        2.6804063377
 H         -1.5607750620       -2.6993510970        3.3206312368
 H         -1.1370039491       -5.3375489017        1.7372015207
 H          0.1736271028       -4.2656999417        2.3835647483
 H         -2.0079379101       -3.4118748649        0.3492430300
