  62
        -98.93431391
 C         -2.3325742996       -1.1892499238        0.0876333477
 C         -3.2502007724       -0.5146833192        0.9277386508
 C         -4.1319604574        0.4889709423        0.3001330750
 C         -3.9937842043        0.7340385394       -1.0159881901
 C         -4.7447568298        1.7261753284       -1.8635096857
 C         -4.2679600890        3.1715531891       -1.6462430592
 C         -4.0413166293        3.5618077924       -0.1878444039
 H         -3.5995187523        4.5618220747       -0.1759783373
 H         -3.3117839427        2.8817745642        0.2565735217
 C         -5.2972491932        3.5967371014        0.6798478628
 H         -6.0057149173        4.3112481679        0.2548712061
 H         -5.0010492073        3.9688334101        1.6641742898
 C         -6.0147118107        2.2593534279        0.8743349614
 H         -6.5949657272        1.9941165947       -0.0053096686
 H         -6.7312496258        2.3910120509        1.6904208490
 C         -5.1075100286        1.1006658031        1.2767409265
 H         -5.7355720157        0.2716166942        1.6253444316
 H         -4.5141008815        1.3962445863        2.1498430266
 H         -4.9969623936        3.8470575134       -2.0967505649
 H         -3.3195963155        3.2966964111       -2.1744789262
 H         -5.8119094426        1.6378982288       -1.6827968915
 H         -4.5594033465        1.4523007365       -2.9044359569
 O         -3.0594961183        0.0977904868       -1.7771526698
 C         -2.2055416211       -0.8640432787       -1.2633016089
 O         -1.4063960992       -1.3279216984       -2.0962908315
 O         -3.3291041207       -0.7316530901        2.1681628256
 C         -1.4211067228       -2.2234126201        0.7221947177
 C          0.0110311964       -1.9755362237        0.3176091062
 C          0.8216213593       -2.9283807965       -0.2833588911
 C          2.1307009280       -2.6246513049       -0.6159424665
 C          2.6581052793       -1.3729217456       -0.3609806708
 C          1.8576327146       -0.4119680752        0.2434496907
 C          0.5512252388       -0.7226984287        0.5848823145
 H         -0.0725675319        0.0276456500        1.0573830381
 N          2.3799384703        0.8705988722        0.4911998288
 S          3.8299742063        0.9833844028        1.3305908319
 O          4.0057758497       -0.1312320442        2.2329065559
 O          3.8164865589        2.2995533693        1.9315896584
 C          5.0712898441        0.9396930968        0.0556434658
 C          6.0767117831       -0.0059151351        0.1061927467
 C          7.0378137467       -0.0156459668       -0.8928376435
 C          6.9769728925        0.9157855817       -1.9180780275
 C          5.9619948856        1.8606274730       -1.9526556593
 C          4.9987609269        1.8765903677       -0.9565798788
 H          4.1958086097        2.5948666071       -0.9454154092
 H          5.9178867700        2.5832785538       -2.7515902781
 H          7.7245614242        0.9054177726       -2.6954721385
 H          7.8276653581       -0.7490834138       -0.8679375040
 H          6.0794054417       -0.7138657381        0.9196021930
 H          1.7031281229        1.5176492092        0.8689905733
 H          3.6740809231       -1.1314702849       -0.6274224658
 H          2.7472724955       -3.3736498598       -1.0889873476
 H          0.4244167328       -3.9037456285       -0.5103589535
 H         -1.4995261181       -2.0242120613        1.8050495542
 C         -1.8688264440       -3.6631492513        0.5192541818
 C         -3.3065105757       -3.9972501913        0.2586327159
 C         -2.2847330328       -4.1945851438       -0.8185874917
 H         -2.0044546525       -5.2053799775       -1.0769031345
 H         -2.2734314171       -3.5106905776       -1.6523069933
 H         -3.7256768245       -4.8680633965        0.7401100292
 H         -4.0018965140       -3.1761320522        0.1596809166
 H         -1.3304125869       -4.3472928619        1.1682511345
