  62
        -98.94795379
 C         -2.3179909299       -0.3955224609        0.1416777215
 C         -1.7572839605        0.2550681196       -0.9838167385
 C         -1.7963656403        1.7221170996       -0.9601006378
 C         -2.2398764795        2.3586299791        0.1386131428
 C         -2.3395241492        3.8487172991        0.3213833935
 C         -1.0162657589        4.5139045987        0.7242216230
 C          0.0076779504        4.6603345491       -0.4020319576
 H         -0.4708494801        5.1142368896       -1.2710708970
 H          0.7721390307        5.3553478688       -0.0486591677
 C          0.6916760100        3.3485679792       -0.8117904986
 H          0.5728069004        2.6081693788       -0.0170847489
 H          1.7662869100        3.5189191191       -0.9204737892
 C          0.1938052791        2.7565165999       -2.1295599386
 H          0.4334519387        3.4383255502       -2.9491963984
 H          0.7291375489        1.8207214399       -2.3017569094
 C         -1.3112563710        2.4640505001       -2.1707397278
 H         -1.8680553409        3.3951120602       -2.2802045770
 H         -1.5098585416        1.8338986205       -3.0415839579
 H         -0.5718231084        3.9412508683        1.5424531725
 H         -1.2541787985        5.5106845485        1.1038299436
 H         -2.7157871997        4.3079523595       -0.5936261860
 H         -3.0669465787        4.0151958488        1.1190505041
 O         -2.6828774789        1.6959627687        1.2403410427
 C         -2.7294953391        0.3137976087        1.2692579721
 O         -3.1575914985       -0.1648297418        2.3425167321
 H         -0.5299421688       -1.1990924220        1.9618728000
 C         -0.1086672794       -1.8768407317        1.2294453294
 C         -0.9323111801       -2.4067638611        0.2427086197
 C         -0.3769291908       -3.2790300807       -0.6833225511
 C          0.9756175892       -3.5770783509       -0.6441293021
 C          1.8032107999       -2.9907554015        0.2967281377
 C          1.2491720706       -2.1363956218        1.2404851584
 N          2.1179850012       -1.4407918824        2.1373076982
 S          2.3133711211        0.1524267478        1.6002950889
 O          3.2622603218        0.7619327473        2.5078913985
 O          1.0412621511        0.8356765481        1.4909019200
 C          3.0467025801       -0.0882168615        0.0010353283
 C          4.4226799800       -0.1669652316       -0.0904531526
 C          4.9985401392       -0.4142152211       -1.3261086031
 C          4.1917325585       -0.5854953305       -2.4413069927
 C          2.8120983085       -0.5062316904       -2.3312547818
 C          2.2290076593       -0.2564196409       -1.0988148313
 H          1.1574779394       -0.1958081308       -0.9844387006
 H          2.1767351180       -0.6433436199       -3.1918383914
 H          4.6390327978       -0.7830248501       -3.4026826231
 H          6.0711061591       -0.4767108012       -1.4152379738
 H          5.0054091206       -0.0276158721        0.8052714471
 H          1.7532894018       -1.4037615528        3.0808086185
 H          2.8649255899       -3.1753420816        0.3085556969
 H          1.3941896887       -4.2513589106       -1.3748969827
 H         -1.0001342213       -3.7090447703       -1.4499910009
 C         -2.3584917200       -1.9156847509        0.2107400808
 H         -2.8308518195       -2.1626495913        1.1725062210
 C         -3.1877056408       -2.4962631802       -0.9130643089
 C         -3.7964262509       -3.8573559102       -0.7636270692
 C         -4.6671509407       -2.6384171901       -0.7259502481
 H         -5.3141184112       -2.4380429297       -1.5665873776
 H         -5.0802987101       -2.3312674405        0.2241466023
 H         -3.6223560304       -4.3833956107        0.1629020904
 H         -3.8503427415       -4.4969824998       -1.6312589095
 H         -2.8355100314       -2.1954934598       -1.8922483890
 O         -1.2617547412       -0.3531111500       -1.9680134891
