  62
        -98.93402854
 C         -2.5279886753       -0.1494763486        0.0901563612
 C         -2.4809059022        1.0030407214        0.9080848674
 C         -2.0130165553        2.2576503183        0.2912745988
 C         -1.6518637419        2.2414962668       -1.0050379068
 C         -1.0737220245        3.3603728259       -1.8302260305
 C          0.4103543106        3.5977743630       -1.5155550547
 C          0.7437233513        3.6842979489       -0.0286826419
 H          0.4965172830        2.7312997070        0.4451884516
 H          1.8277188924        3.8027431397        0.0585404592
 C          0.0837711669        4.8348187761        0.7292147340
 H          0.5081270875        4.8375812628        1.7365445333
 H          0.3556151724        5.7783925643        0.2508314411
 C         -1.4407605485        4.7750118128        0.8612410784
 H         -1.9316187131        5.1190706654       -0.0453464669
 H         -1.7254470324        5.4740110821        1.6530946965
 C         -1.9897976238        3.4109998727        1.2655305408
 H         -3.0273353763        3.5348222378        1.5996044611
 H         -1.4452513298        3.0506740710        2.1465631065
 H          0.7289648247        4.5123293605       -2.0196726175
 H          0.9792537616        2.7588487348       -1.9247059869
 H         -1.1615214505        3.0554038057       -2.8754505220
 H         -1.6492676054        4.2714484139       -1.6972605837
 O         -1.7336594437        1.1135694684       -1.7640815408
 C         -2.1080550530       -0.1088585261       -1.2408385562
 O         -2.0444326765       -1.0493824462       -2.0552430689
 O         -2.7976878869        0.9852863805        2.1313389397
 C         -2.8419735583       -1.4765174935        0.7596224277
 C         -1.7087343766       -2.4348965912        0.4832938518
 C         -1.8687740263       -3.7574218940        0.0975841529
 C         -0.7596469349       -4.5538924837       -0.1423027433
 C          0.5210049993       -4.0466688261       -0.0354163158
 C          0.6907172804       -2.7172510940        0.3419363564
 C         -0.4160675719       -1.9446678295        0.6363204510
 H         -0.2715355756       -0.9235772291        0.9618998457
 N          1.9763266723       -2.1395776056        0.3737961076
 S          2.1664811091       -0.4793227933        0.4754617722
 O          1.9312842653        0.0011177625        1.8235309961
 O          1.4011477994        0.1380667089       -0.5758296505
 C          3.9061907748       -0.3663573696        0.1025260678
 C          4.8190006153       -0.1414240962        1.1146186687
 C          6.1685253682       -0.0869460351        0.8014135321
 C          6.5797788743       -0.2600537860       -0.5112460232
 C          5.6514070167       -0.4833563751       -1.5176807118
 C          4.3014274017       -0.5376180055       -1.2106450448
 H          3.5415629175       -0.7002451902       -1.9577986594
 H          5.9738633914       -0.6147815410       -2.5379857715
 H          7.6300507739       -0.2182529616       -0.7529112945
 H          6.8918460058        0.0898751885        1.5810328231
 H          4.4513135089       -0.0058558160        2.1190313526
 H          2.6771567634       -2.6625361936        0.8765223089
 H          1.3818482863       -4.6590731942       -0.2517069286
 H         -0.8991912159       -5.5829983668       -0.4369811977
 H         -2.8586308884       -4.1635650415       -0.0318729787
 H         -2.8205122961       -1.2393914629        1.8382190103
 C         -4.2214514817       -2.0496633935        0.4753584105
 C         -5.3265955486       -1.1855823739       -0.0523896639
 C         -4.7362582233       -2.2571194626       -0.9164155637
 H         -5.3305724308       -3.1371224738       -1.1150858467
 H         -4.0928936532       -1.9643006094       -1.7305470827
 H         -6.3216880297       -1.3263126110        0.3425413272
 H         -5.0875099170       -0.1571942947       -0.2832986149
 H         -4.5107758752       -2.7916415477        1.2136096134
