  62
        -98.93970177
 C         -1.7719015412       -0.7008643307        0.2166491330
 C         -3.0811599479       -0.9284466765        0.7003197520
 C         -4.0057924016        0.2159448977        0.6458749967
 C         -3.5700451203        1.3926253520        0.1636801235
 C         -4.3207875086        2.6961381888        0.0524971051
 C         -5.7704137402        2.6393359155       -0.4486581420
 C         -6.0611629861        1.5327550543       -1.4729828662
 H         -6.5624296286        1.9721419790       -2.3374903715
 H         -5.1265132468        1.0944414700       -1.8272949009
 C         -6.9643789060        0.4283730283       -0.9185717552
 H         -7.7705369079        0.8903900989       -0.3444563994
 H         -7.4231470656       -0.1034802985       -1.7556457109
 C         -6.2654301967       -0.6153783929       -0.0482619214
 H         -5.6170319453       -1.2405077009       -0.6683506027
 H         -7.0321602632       -1.2700484251        0.3730865804
 C         -5.4112663610       -0.0543722686        1.1003931139
 H         -5.8707544060        0.8282332141        1.5384535725
 H         -5.3358729013       -0.8270919603        1.8703828982
 H         -6.4452046094        2.5239501379        0.3983838768
 H         -5.9883582133        3.6121221230       -0.8927109813
 H         -4.3002278532        3.1846341452        1.0310335233
 H         -3.7234387132        3.3099075494       -0.6259123485
 O         -2.2938209416        1.5695356791       -0.2827052488
 C         -1.3690654366        0.5377167207       -0.2773220356
 O         -0.2496259568        0.8489776439       -0.7250495085
 O         -3.4579289148       -2.0348680037        1.1712872102
 C         -0.7743814814       -1.8442689516        0.2218209099
 C          0.4625020388       -1.4558566223        0.9918207867
 C          0.3203501585       -0.9733838742        2.2914101456
 C          1.4241620957       -0.6055975692        3.0348960360
 C          2.6958556761       -0.7028662214        2.4957754310
 C          2.8498570029       -1.1884608232        1.2040711656
 C          1.7383506861       -1.5725374820        0.4643006178
 H          1.8921942324       -1.9408499525       -0.5355559784
 N          4.1303589087       -1.3245457781        0.6339571309
 S          4.4802493196       -0.5520292791       -0.8103736128
 O          3.5938792197       -1.0164402653       -1.8445214244
 O          5.8910570130       -0.7949268632       -1.0214642810
 C          4.2250755618        1.1799072529       -0.4668240448
 C          2.9417289113        1.6870964349       -0.4298844923
 C          2.7655084824        3.0205107018       -0.0912843784
 C          3.8610750577        3.8169870006        0.2023473381
 C          5.1435099928        3.2901966522        0.1597713526
 C          5.3285289453        1.9585261580       -0.1723413963
 H          6.3060484284        1.5063275873       -0.2212996245
 H          5.9954200832        3.9110869731        0.3859746360
 H          3.7135807652        4.8529503578        0.4645197368
 H          1.7631067792        3.4175902941       -0.0609087003
 H          2.0943735548        1.0610537749       -0.6618924787
 H          4.8834652658       -1.1577309729        1.2872520142
 H          3.5605203383       -0.4100982834        3.0720210380
 H          1.2956317629       -0.2333784513        4.0400345954
 H         -0.6739631396       -0.8898071776        2.7089914758
 H         -1.2718099442       -2.6644726431        0.7610149848
 C         -0.4915982321       -2.2984201321       -1.1947799864
 C         -0.0868066504       -3.7154112049       -1.4659773801
 C         -1.4502005610       -3.2362797009       -1.8624495052
 H         -1.6647158835       -3.0951526993       -2.9113001600
 H         -2.2987080582       -3.5715996046       -1.2837802425
 H          0.6405262691       -3.9011928477       -2.2421824993
 H         -0.0101156983       -4.3835767068       -0.6215175478
 H         -0.0499341644       -1.5189083517       -1.8069870870
