  62
        -98.94110830
 C         -1.8923123478       -0.9078586042        0.2726758511
 C         -2.3113003763        0.0866713776        1.1908886199
 C         -2.5822182401        1.4170536749        0.6326917277
 C         -2.3581116352        1.6358880244       -0.6755051489
 C         -2.6280802067        2.9296023136       -1.3872149192
 C         -4.0502038989        2.9624611473       -1.9648568189
 C         -5.1327366206        2.5593920635       -0.9635293177
 H         -5.0013047574        1.5067844570       -0.7026041099
 H         -6.0950696005        2.6471147545       -1.4721718318
 C         -5.1541618371        3.3998954521        0.3207573015
 H         -6.1885882565        3.6650752589        0.5485786947
 H         -4.6072361050        4.3301134538        0.1635978005
 C         -4.5957404610        2.6878178224        1.5543068135
 H         -5.0766027196        1.7124834566        1.6639427069
 H         -4.8537869811        3.2806467045        2.4357518747
 C         -3.0758834763        2.4793024401        1.5744972733
 H         -2.7976387353        2.1408000199        2.5771400727
 H         -2.5695462342        3.4278777718        1.3824581320
 H         -4.0942160600        2.2750605846       -2.8127088674
 H         -4.2492328380        3.9704854041       -2.3329610027
 H         -1.9077895051        3.0265913889       -2.2014628114
 H         -2.4862004829        3.7546819786       -0.6916108309
 O         -1.8996626566        0.6758996561       -1.5163896959
 C         -1.6452884710       -0.6134142595       -1.0697096899
 O         -1.2241480628       -1.3782068954       -1.9577622359
 O         -2.4510487994       -0.1302353638        2.4259926792
 C         -1.5744487891       -2.2871204422        0.8239109305
 C         -0.2152239955       -2.7180344857        0.3325697917
 C          0.0345135098       -3.9148758640       -0.3242689962
 C          1.3086596065       -4.2070805187       -0.7803508615
 C          2.3485743756       -3.3141835060       -0.6048317380
 C          2.1103322558       -2.1174944304        0.0634702320
 C          0.8427968345       -1.8417587513        0.5439829664
 H          0.6651842581       -0.9062714801        1.0567717280
 N          3.1493095084       -1.1934649129        0.2795511750
 S          2.7696944941        0.4511738143        0.3004033146
 O          2.2682513516        0.7927587523        1.6093922451
 O          1.9262780646        0.7990498927       -0.8214414750
 C          4.3995943030        1.1452071548        0.0906687226
 C          4.8128321780        1.5408574375       -1.1673381865
 C          6.0938122031        2.0470913255       -1.3240120428
 C          6.9362621679        2.1445589810       -0.2267592500
 C          6.5072236977        1.7437844592        1.0299685780
 C          5.2273377112        1.2382536327        1.1937321526
 H          4.8451993487        0.9227849430        2.1504836488
 H          7.1637733928        1.8235436204        1.8812479228
 H          7.9325431369        2.5382303692       -0.3516316448
 H          6.4283068400        2.3623666165       -2.2991973677
 H          4.1192711115        1.4528332329       -1.9885132807
 H          3.9570313856       -1.3748062869       -0.3012495269
 H          3.3348121577       -3.5338989199       -0.9845542268
 H          1.4888609840       -5.1366336377       -1.2988686716
 H         -0.7718025229       -4.6059273945       -0.5068345440
 H         -1.5031852473       -2.1311611205        1.9144863814
 C         -2.6645119552       -3.3252077252        0.6055227554
 C         -4.0907112423       -2.9140776649        0.3973104321
 C         -3.3178332389       -3.5319795455       -0.7269545344
 H         -3.5670821703       -4.5403654483       -1.0235327526
 H         -2.9959839870       -2.9018356217       -1.5408427393
 H         -4.8670405273       -3.4946132739        0.8726971780
 H         -4.3025417287       -1.8555022247        0.3502107845
 H         -2.5072430306       -4.2111257091        1.2131932420
