  62
        -98.94554763
 C         -1.9681176314       -1.5125904202       -0.1048374395
 C         -1.6807659583       -0.2611415478       -0.7024531965
 C         -2.8039262662        0.6859125512       -0.7624459849
 C         -4.0111991208        0.3090263590       -0.3034735014
 C         -5.2238465458        1.1921116914       -0.2562947406
 C         -5.3213485596        1.9256017406        1.0888096435
 C         -4.0221467863        2.6103063535        1.5137624179
 H         -4.2182612652        3.1197975906        2.4598078960
 H         -3.2647715341        1.8480386490        1.7110073493
 C         -3.4728040945        3.6175922490        0.4940845195
 H         -4.2611445987        3.9055356605       -0.2024256545
 H         -3.1661480545        4.5203799225        1.0265877340
 C         -2.2545768765        3.1276452795       -0.2914224276
 H         -1.8234890458        3.9871425874       -0.8110683729
 H         -1.4996353028        2.7467883512        0.4008447129
 C         -2.5276991682        2.0442945659       -1.3421653468
 H         -3.3429407488        2.3599329786       -1.9961877970
 H         -1.6225113678        1.9289114564       -1.9450415548
 H         -6.1206299351        2.6660242218        1.0217353483
 H         -5.5944852658        1.2008912743        1.8595080791
 H         -5.1766166532        1.9110963034       -1.0716756298
 H         -6.1100388749        0.5683051804       -0.3849185388
 O         -4.2560552198       -0.9183501536        0.2243903425
 C         -3.2385056996       -1.8488280720        0.3602147416
 O         -3.5847498257       -2.9190631746        0.9008911324
 O         -0.5510265366        0.0494774560       -1.1590171444
 C         -0.8592683442       -2.5384414847        0.0510781553
 C          0.2949071348       -1.9007440113        0.7843219256
 C          0.0498452053       -1.2949047484        2.0142233505
 C          1.0604578232       -0.6513759678        2.7014642435
 C          2.3405215208       -0.5957266733        2.1773782226
 C          2.5968335014       -1.2032159510        0.9566976734
 C          1.5810169949       -1.8591933035        0.2724211526
 H          1.7999817431       -2.3224197067       -0.6767491336
 N          3.8947604337       -1.1475493372        0.4127418588
 S          4.5954146072        0.3655105936        0.2459925682
 O          5.6665073411        0.1778915961       -0.7071741338
 O          4.9838470580        0.8551261226        1.5449556826
 C          3.3231066536        1.4023677808       -0.4485394983
 C          3.0345096053        1.2660597100       -1.7914621182
 C          2.0242515605        2.0359345755       -2.3415961543
 C          1.3192209047        2.9200467386       -1.5412184011
 C          1.6172725039        3.0417505410       -0.1938885100
 C          2.6274048644        2.2744359252        0.3626099923
 H          2.8917137115        2.3423049284        1.4053369027
 H          1.0630188061        3.7291128632        0.4253259704
 H          0.5306204411        3.5172439637       -1.9710092926
 H          1.7840067395        1.9393615090       -3.3882346957
 H          3.6111982653        0.5742187899       -2.3847276547
 H          3.9856509831       -1.6616364671       -0.4521631745
 H          3.1395680948       -0.0869311356        2.6916390335
 H          0.8513247381       -0.1838451424        3.6520163438
 H         -0.9532467799       -1.3270522587        2.4187311527
 H         -1.2685401413       -3.3432852453        0.6781152918
 C         -0.4896133439       -3.1132749272       -1.3002462435
 C          0.1171492598       -4.4800613289       -1.3987509182
 C         -1.2948979694       -4.2521765764       -1.8461937498
 H         -1.5114802389       -4.2707617224       -2.9038148830
 H         -2.0979570879       -4.6308245429       -1.2307201305
 H          0.8686372279       -4.6603272960       -2.1529069680
 H          0.2760834559       -5.0241690327       -0.4800025242
 H         -0.1630146057       -2.3536758556       -2.0015510520
