  62
        -98.93487427
 C         -1.6773879097       -1.0998166963        0.0688017716
 C         -2.1223059241        0.1534753935       -0.4123364725
 C         -3.5838220187        0.3212453122       -0.5817139412
 C         -4.4012008548       -0.6974109212       -0.2602848632
 C         -5.9049223312       -0.7461849728       -0.3190653247
 C         -6.5678621382        0.0202883805        0.8367098546
 C         -5.9513288472        1.3831855781        1.1405446533
 H         -6.4344647808        1.7729837146        2.0404182357
 H         -4.8922151575        1.2549544049        1.3716242846
 C         -6.1065849869        2.4278439815        0.0379404099
 H         -7.1690544824        2.5798785979       -0.1651180611
 H         -5.7044128102        3.3683323271        0.4233227689
 C         -5.3995005185        2.1170008721       -1.2829985825
 H         -5.3882565049        3.0396724589       -1.8708094137
 H         -5.9571591212        1.3884719025       -1.8654722836
 C         -3.9459034019        1.6764493119       -1.1401087906
 H         -3.4691740505        1.7256416162       -2.1270929049
 H         -3.4069863754        2.4081705668       -0.5270469556
 H         -7.6280580583        0.1402654898        0.6076313668
 H         -6.4842398493       -0.5909571041        1.7385969498
 H         -6.2535588474       -0.3778564435       -1.2792822075
 H         -6.1868828396       -1.7988078584       -0.2443378747
 O         -3.9277308295       -1.8769604221        0.2348309372
 C         -2.5796873619       -2.1072274042        0.4192626879
 O         -2.3104730805       -3.2262952561        0.8995888418
 H          1.7138753057        0.3165370623       -0.7164621119
 C          1.4644148225        0.5007597459        0.3142940336
 C          0.4917379741       -0.2539747409        0.9495869499
 C          0.1493337616        0.0647039434        2.2613722766
 C          0.7599534029        1.1169302354        2.9152001045
 C          1.7419628848        1.8597520486        2.2830928607
 C          2.0882241258        1.5517549989        0.9732494068
 N          3.0755845146        2.2873344853        0.3059093059
 S          4.0580914083        1.5656188373       -0.8292752813
 O          5.2525113165        2.3843804124       -0.8383972108
 O          3.3804077092        1.4385763638       -2.0945336420
 C          4.4394074878       -0.0527610368       -0.1787129038
 C          4.2175261518       -1.1683707870       -0.9596225166
 C          4.5171671038       -2.4200640023       -0.4455232184
 C          5.0295494428       -2.5336559770        0.8373126575
 C          5.2531277228       -1.4029328575        1.6079618973
 C          4.9580984909       -0.1493826916        1.0973893939
 H          5.1286647403        0.7473451218        1.6702345681
 H          5.6544486894       -1.4952049423        2.6042332253
 H          5.2566967797       -3.5092059874        1.2372879102
 H          4.3456412650       -3.3001750410       -1.0449962281
 H          3.8111175615       -1.0346092950       -1.9496647548
 H          3.5621495588        2.9726452361        0.8632635302
 H          2.2231653803        2.6810188929        2.7919706423
 H          0.4767306013        1.3575921958        3.9288536709
 H         -0.6153503667       -0.5188622421        2.7563529935
 C         -0.2054258541       -1.4111656391        0.2796560990
 H         -0.1963488267       -2.2600484821        0.9833355008
 C          0.5160485422       -1.8818989186       -0.9742735911
 C         -0.1953590174       -2.6728525462       -2.0296996284
 C          0.2640664692       -1.2770818577       -2.3210477248
 H          1.1033717096       -1.1331250895       -2.9865723127
 H         -0.4737426933       -0.4929467375       -2.3876397536
 H          0.3269215064       -3.4957837612       -2.4937008987
 H         -1.2536549990       -2.8460799123       -1.8981537098
 H          1.5383543826       -2.1779460426       -0.7581588497
 O         -1.3554952061        1.1109699737       -0.6932398178
