  62
        -98.94082175
 C          0.4394126328        1.8175570859        0.6816823563
 C          1.2668566252        1.9056378457       -0.4618403862
 C          2.5612307747        1.2045958993       -0.3862847643
 C          2.8626339834        0.4920370333        0.7127216852
 C          4.1205722181       -0.2806339775        1.0239128528
 C          4.7737589206       -1.0740486646       -0.1142166699
 C          3.7896443602       -1.7085679495       -1.1074267312
 H          2.7713887524       -1.6331371576       -0.7233842415
 H          4.0250855411       -2.7687883121       -1.2109632250
 C          3.8498750569       -1.0765109288       -2.4993399651
 H          3.4286100563       -1.7778817558       -3.2231797939
 H          4.8953138019       -0.9141990008       -2.7708741077
 C          3.0852631611        0.2378217732       -2.6450927570
 H          2.0092549196        0.0516318767       -2.5849887242
 H          3.2849942319        0.6374067037       -3.6423402781
 C          3.4309625545        1.3166428305       -1.6058752888
 H          3.2020195110        2.2909443176       -2.0464564346
 H          4.4875065354        1.2936688025       -1.3502400493
 H          5.3754636343       -1.8551061446        0.3536000647
 H          5.4656596708       -0.4316989405       -0.6567996644
 H          4.8528208506        0.4205463382        1.4356755543
 H          3.8412988381       -0.9609466476        1.8316264977
 O          2.0157985574        0.4069519965        1.7791697987
 C          0.7989979461        1.0639536185        1.7967599292
 O          0.1376072142        0.8977157740        2.8425783739
 H         -1.3470376260       -0.0942123717        0.3412253154
 C         -1.8793188002        0.4793748871       -0.4036834398
 C         -1.7808896067        1.8657141613       -0.3877993762
 C         -2.4717172028        2.5924130559       -1.3474469065
 C         -3.2317980249        1.9386388073       -2.3025128725
 C         -3.3366614423        0.5602587426       -2.3066116489
 C         -2.6558207603       -0.1769719949       -1.3431140713
 N         -2.7268150676       -1.5773409932       -1.3179135710
 S         -2.7614151479       -2.3944920170        0.1435424614
 O         -3.3913040901       -3.6592153948       -0.1748905688
 O         -3.4005449596       -1.6109262956        1.1743181464
 C         -1.0553071572       -2.7056722588        0.5407945679
 C         -0.3120624353       -3.4568760362       -0.3492904445
 C          1.0043133463       -3.7530399848       -0.0388990686
 C          1.5541010928       -3.2964077832        1.1504971996
 C          0.7956148439       -2.5445623662        2.0330126417
 C         -0.5237753695       -2.2468047173        1.7285843270
 H         -1.1349019894       -1.6528830346        2.3912835040
 H          1.2186326143       -2.1727250771        2.9528793365
 H          2.5801324627       -3.5270275541        1.3903747782
 H          1.5996171474       -4.3361888323       -0.7227922669
 H         -0.7784477020       -3.7999189212       -1.2578109014
 H         -3.3588530408       -1.9853221555       -1.9911798205
 H         -3.9364407969        0.0546726604       -3.0480891125
 H         -3.7572160052        2.5128980906       -3.0505361598
 H         -2.4099372580        3.6680427537       -1.3542286826
 C         -0.9221301633        2.4886680147        0.6872517783
 H         -1.3781898823        2.2448418917        1.6587332221
 C         -0.7887626476        3.9919900207        0.5747783561
 C         -1.8593205879        4.8825447169        1.1278255598
 C         -0.5314134903        4.7902136847        1.8159768377
 H          0.1408408248        5.6329934730        1.7575159455
 H         -0.4744177287        4.2506132488        2.7504886939
 H         -2.7080802396        4.4097937307        1.5991679741
 H         -2.0988188428        5.7929169203        0.5993582596
 H         -0.2818016487        4.2998944636       -0.3319697962
 O          0.9522453143        2.5489027626       -1.4964578703
