  62
        -98.94339207
 C          1.9303319835        0.7677947018        0.5498877209
 C          2.2269032973        0.1797974064       -0.7028517175
 C          2.6189084397       -1.2338911215       -0.6641922912
 C          2.6164786129       -1.8971910303        0.5061822260
 C          2.9605588201       -3.3492205300        0.7013089940
 C          4.4655345051       -3.6229129641        0.8305843964
 C          5.2646777967       -3.4922638433       -0.4666787244
 H          6.2517898251       -3.9188079533       -0.2780821378
 H          4.7923198321       -4.0933944527       -1.2440279949
 C          5.4368038916       -2.0496087952       -0.9620388471
 H          5.2159800123       -1.3561746913       -0.1473242380
 H          6.4775665043       -1.8852086840       -1.2497475282
 C          4.5705607489       -1.6857947775       -2.1679544601
 H          4.8715839472       -2.2851582009       -3.0298921914
 H          4.7445872136       -0.6344266896       -2.4099883187
 C          3.0643822989       -1.8754512938       -1.9437020674
 H          2.5292279606       -1.3861188053       -2.7612132460
 H          2.8125040873       -2.9357673116       -1.9458778833
 H          4.8785835589       -2.9476793682        1.5835092369
 H          4.5792028028       -4.6441129160        1.2015681963
 H          2.4706765350       -3.6613136684        1.6263451982
 H          2.5501305778       -3.9352495466       -0.1215467426
 O          2.2733191704       -1.3075781890        1.6837483436
 C          1.9372043297        0.0353368605        1.7353193527
 O          1.6695388472        0.4551146054        2.8818021009
 H         -0.5968615118        0.6233459047        0.4045650751
 C         -0.7225085638        1.5203555941       -0.1859453454
 C          0.2890880820        2.4718662431       -0.2116040776
 C          0.1011852527        3.6199714850       -0.9708222691
 C         -1.0682624619        3.7996112959       -1.6892443273
 C         -2.0721969859        2.8501409235       -1.6606052454
 C         -1.8922888771        1.6950469572       -0.9061806720
 N         -2.8751680422        0.6917241362       -0.8899519102
 S         -3.0085274743       -0.3161596799        0.4535030880
 O         -3.0097718380        0.4685994260        1.6685317471
 O         -2.0155602998       -1.3580756315        0.3588907343
 C         -4.6310023473       -1.0002318601        0.1696759585
 C         -5.7261772716       -0.4091745993        0.7714426249
 C         -6.9885431409       -0.9236130065        0.5207070182
 C         -7.1342202687       -2.0129814777       -0.3250486098
 C         -6.0258306762       -2.5967301550       -0.9204751273
 C         -4.7606623590       -2.0876049625       -0.6733974139
 H         -3.8692277466       -2.5120719546       -1.1052914076
 H         -6.1420593926       -3.4456940303       -1.5746414180
 H         -8.1173817143       -2.4116376906       -0.5189546302
 H         -7.8512599291       -0.4740668196        0.9852089947
 H         -5.5625625116        0.4291844466        1.4293209655
 H         -3.7757488986        1.0092302281       -1.2210279581
 H         -2.9826774505        2.9917522027       -2.2224274529
 H         -1.2009634369        4.6954013720       -2.2767161205
 H          0.8714395985        4.3730855749       -1.0013604708
 C          1.5263549725        2.2277434569        0.6197934618
 H          1.2652767528        2.4210504497        1.6719736081
 C          2.6945139265        3.1129622955        0.2340994074
 C          2.8633069418        4.4643050043        0.8589575826
 C          3.7842767574        3.3442449690        1.2359631026
 H          4.8064279302        3.3742374532        0.8897614191
 H          3.6653490491        2.8864071647        2.2077546293
 H          2.1257723124        4.7761379243        1.5831732945
 H          3.2579942031        5.2665726153        0.2539190659
 H          2.9853632221        2.9844899522       -0.8021616309
 O          2.1696085836        0.8010128659       -1.7963269613
