  62
        -98.93824793
 C          2.4832813680       -0.7131662270       -0.0099609222
 C          2.8722770401        0.4388524867       -0.7411552044
 C          4.0002983097        1.2078890374       -0.2024317080
 C          4.5787868337        0.8040891416        0.9430640402
 C          5.7706122274        1.4568435118        1.5799437685
 C          7.0793988701        0.8244409894        1.0862738139
 C          7.1690423736        0.6982129385       -0.4345664872
 H          8.1452368699        0.2678659387       -0.6684872304
 H          6.4141730301       -0.0127564555       -0.7783086136
 C          6.9987220567        2.0223131185       -1.1924163149
 H          7.7658863355        2.0836732714       -1.9672297067
 H          7.1569189778        2.8608250682       -0.5133195688
 C          5.6469052891        2.1840829893       -1.8902299207
 H          5.7136659757        3.0405330067       -2.5665057287
 H          5.4416876427        1.3010857843       -2.5008885690
 C          4.4440834106        2.4222663334       -0.9684995398
 H          4.6599104589        3.2488706795       -0.2884973761
 H          3.5948694002        2.7063839378       -1.5968194557
 H          7.1654541798       -0.1752771178        1.5183277064
 H          7.9132050287        1.4258366355        1.4528561593
 H          5.7601225111        2.5209643277        1.3520979904
 H          5.6987973799        1.3245574051        2.6607435649
 O          4.1644583078       -0.2871889671        1.6317792376
 C          3.1128842833       -1.0784129358        1.1810532344
 O          2.8624362583       -2.0425554938        1.9255783364
 H         -0.8436544349       -0.7304229709       -1.9616762093
 C         -1.0094731062       -0.6892118468       -0.8934197319
 C          0.0144997733       -1.0532756029       -0.0318094636
 C         -0.2081846537       -0.9763058410        1.3396816779
 C         -1.4299681581       -0.5490184603        1.8265577518
 C         -2.4482254099       -0.1832243768        0.9630184086
 C         -2.2358979382       -0.2523547429       -0.4069230451
 N         -3.2541941145        0.1390431073       -1.2886293174
 S         -4.8211294629       -0.3964846826       -1.0270239661
 O         -4.8361691299       -1.6850185026       -0.3749973153
 O         -5.4616209507       -0.3232958232       -2.3217173325
 C         -5.5272795731        0.8404075686        0.0409406004
 C         -6.1616228157        0.4596121901        1.2071216526
 C         -6.7185188888        1.4370598264        2.0172040345
 C         -6.6325480784        2.7705811729        1.6478769023
 C         -5.9941829867        3.1361872753        0.4719616650
 C         -5.4364457601        2.1640418545       -0.3428580415
 H         -4.9341057656        2.4078143348       -1.2641688639
 H         -5.9287673782        4.1743645231        0.1885334002
 H         -7.0651734559        3.5296988921        2.2802933357
 H         -7.2153970492        1.1547131327        2.9314955859
 H         -6.1989602868       -0.5887208420        1.4575149720
 H         -3.0025597762        0.0851876791       -2.2646829938
 H         -3.4003377638        0.1514834710        1.3409723969
 H         -1.5911663045       -0.4969389746        2.8927281899
 H          0.5848584862       -1.2590316370        2.0155215852
 C          1.3352207119       -1.5220096529       -0.5872389936
 H          1.3409146809       -1.2797754846       -1.6622340179
 C          1.5342125735       -3.0264960405       -0.4669798514
 C          0.7104615717       -3.9120916448        0.4136447377
 C          0.5310401136       -3.9641921021       -1.0720726684
 H          0.8868543359       -4.8292670169       -1.6108828341
 H         -0.3720884222       -3.5319046569       -1.4776461532
 H         -0.0732822296       -3.4649888972        1.0041999583
 H          1.2133214872       -4.7288336920        0.9083217677
 H          2.5784521282       -3.3027713124       -0.5735272028
 O          2.3019928690        0.8003291161       -1.8062383101
