  62
        -98.93668944
 C         -1.7042863647       -0.4150608431       -0.4970411122
 C         -2.9439198859       -0.9796999791       -0.8786653590
 C         -4.0909595138       -0.6752878165       -0.0104362567
 C         -3.9009052729        0.0891497333        1.0806111565
 C         -4.9801013808        0.5529314325        2.0171792560
 C         -5.7612901224        1.7207991175        1.3815718330
 C         -7.2248588439        1.4059775060        1.0718202748
 H         -7.7957151059        1.4187298394        2.0027387914
 H         -7.6062377425        2.2117465004        0.4409225238
 C         -7.4876787130        0.0646705948        0.3802149138
 H         -7.4649024530       -0.7394326646        1.1174061914
 H         -8.5080801373        0.1015604503       -0.0072924807
 C         -6.5376537838       -0.2960283020       -0.7691722370
 H         -6.0986438172        0.6030880934       -1.2021733375
 H         -7.1241884554       -0.7739298329       -1.5565784735
 C         -5.4150661040       -1.2794306140       -0.3883031597
 H         -5.7614042175       -1.9347010497        0.4159994353
 H         -5.1965959000       -1.9115074308       -1.2543195600
 H         -5.7313826677        2.5841288116        2.0480205880
 H         -5.2494398660        2.0151924666        0.4629806952
 H         -5.6479391741       -0.2740619332        2.2481201624
 H         -4.4946126249        0.8768910468        2.9380234758
 O         -2.6912985126        0.6033107714        1.4216287394
 C         -1.5635114588        0.3710275317        0.6465783849
 O         -0.5265744013        0.9059051666        1.0770957736
 O         -3.0828500652       -1.7091768062       -1.8983545782
 C         -0.4878513111       -0.6718802793       -1.3645692526
 C          0.6203261233       -1.3470989347       -0.5938023741
 C          0.3220589927       -2.2448125877        0.4267634767
 C          1.3265760444       -2.8553931935        1.1541278098
 C          2.6565637522       -2.5988361293        0.8701328435
 C          2.9666063032       -1.7289024164       -0.1642578302
 C          1.9557289164       -1.1102423248       -0.8892949381
 H          2.2182427954       -0.4309625071       -1.6860200293
 N          4.3277407423       -1.4676864208       -0.4492050942
 S          5.1020368678       -0.4475533683        0.6340865091
 O          6.4671310928       -0.3397000036        0.1718931061
 O          4.9111198385       -0.9590305203        1.9659112344
 C          4.2675742879        1.1141442106        0.4231652540
 C          4.8432194243        2.0809820490       -0.3786312410
 C          4.1432465927        3.2507792398       -0.6241404855
 C          2.8768107027        3.4238137895       -0.0844620140
 C          2.3105570025        2.4423340083        0.7143536620
 C          3.0126062184        1.2758239743        0.9748204919
 H          2.5885326309        0.5001433383        1.5917051780
 H          1.3161461579        2.5492286540        1.1182302826
 H          2.3246692769        4.3280773482       -0.2885356490
 H          4.5802356917        4.0189888152       -1.2419022973
 H          5.8253554296        1.8994869723       -0.7848186030
 H          4.4768093917       -1.1162882796       -1.3858119960
 H          3.4531457840       -3.0462913377        1.4413788261
 H          1.0716579478       -3.5375766013        1.9512907899
 H         -0.7144307398       -2.4519176921        0.6557174473
 H         -0.8313105374       -1.3661537757       -2.1468689114
 C         -0.0379533382        0.6196359457       -2.0210294727
 C          0.5170492594        0.6200208717       -3.4136004639
 C         -0.8489503727        1.1768391358       -3.1509423209
 H         -0.9933142052        2.2452120742       -3.2057787060
 H         -1.7057396839        0.6033540745       -3.4738904966
 H          1.3121460757        1.3109521778       -3.6514419860
 H          0.5829232870       -0.3265298881       -3.9290445741
 H          0.3748982287        1.3232251550       -1.3064301027
