  62
        -98.94095008
 C         -2.3151442798       -0.8317823949       -0.1531921823
 C         -3.6013326749       -1.1974092438        0.3115258497
 C         -4.7249108856       -0.4519176110       -0.2657388334
 C         -4.4908130109        0.4938736591       -1.1938296359
 C         -5.5336642821        1.3233301763       -1.8931403082
 C         -5.9806413704        2.5603705298       -1.1018831666
 C         -6.8634600205        2.2715378571        0.1129396495
 H         -7.2784971088        3.2264949664        0.4412399212
 H         -7.6991760332        1.6396821811       -0.1891103812
 C         -6.1251628015        1.6230389245        1.2922536035
 H         -5.0482837575        1.7572634815        1.1652529364
 H         -6.4033212103        2.1295980689        2.2192150465
 C         -6.4195428460        0.1350799433        1.4830168225
 H         -5.8184578103       -0.2289194207        2.3201529599
 H         -7.4722237984       -0.0002329108        1.7405901020
 C         -6.1007750613       -0.7333900434        0.2588603289
 H         -6.1311480252       -1.7819633868        0.5646170381
 H         -6.8455094246       -0.5738415892       -0.5203561020
 H         -5.0918585481        3.1110152541       -0.7848945178
 H         -6.5407864819        3.2002999661       -1.7875674470
 H         -5.0855091820        1.6579421392       -2.8311534324
 H         -6.4008586481        0.7038679815       -2.1233930676
 O         -3.2392305174        0.8012545188       -1.6298149737
 C         -2.1212392427        0.1654333673       -1.1083538056
 O         -1.0380521620        0.5697081397       -1.5744872207
 O         -3.7989892137       -2.0998632395        1.1684522489
 C         -1.1013269270       -1.5488452725        0.4080950526
 C         -0.1540357667       -0.5568688774        1.0360363095
 C         -0.6554988603        0.3564483340        1.9606562079
 C          0.1724014958        1.2909239519        2.5501386202
 C          1.5178518138        1.3358717619        2.2291536563
 C          2.0330074700        0.4188289448        1.3213089931
 C          1.1989946093       -0.5261253611        0.7382797327
 H          1.6210707633       -1.2208493522        0.0330035401
 N          3.4099442192        0.4147116167        1.0279875011
 S          3.9493093847        0.1437972777       -0.5489431477
 O          3.4115026426        1.1412873621       -1.4477670234
 O          3.7193687809       -1.2339391496       -0.9003600281
 C          5.6967057986        0.4133817249       -0.3098714920
 C          6.2669228111        1.6073867393       -0.7077774678
 C          7.6213902000        1.8088695201       -0.4918962663
 C          8.3775544010        0.8195197866        0.1180439512
 C          7.7911363096       -0.3743799697        0.5116385642
 C          6.4381108606       -0.5826095882        0.2972658840
 H          5.9412622396       -1.4965355554        0.5776526757
 H          8.3829559235       -1.1422315631        0.9831552560
 H          9.4311318164        0.9787679573        0.2851365863
 H          8.0802381221        2.7346508578       -0.7997368580
 H          5.6408912594        2.3443070291       -1.1850542257
 H          3.8752626451        1.2311378332        1.4037327151
 H          2.1636961077        2.0737833243        2.6808971970
 H         -0.2326575623        1.9971213559        3.2595261186
 H         -1.7094433400        0.3272320948        2.2030343001
 H         -1.4905095593       -2.2038566703        1.2024757790
 C         -0.4577277622       -2.4102522277       -0.6574520643
 C          0.2964119497       -3.6469361165       -0.2735616694
 C         -1.0352351170       -3.7611719985       -0.9509522374
 H         -1.0679086084       -4.0953219582       -1.9771278522
 H         -1.8845380402       -4.0740749541       -0.3612121270
 H          1.1857925257       -3.8979646981       -0.8320148480
 H          0.3524909216       -3.8896215305        0.7768588260
 H         -0.0905708715       -1.8299449966       -1.4980583627
