  62
        -98.93062930
 C          1.9650481714        1.1165690306       -0.4043471771
 C          2.8315680073        0.8067898212        0.6751355979
 C          3.5207396103       -0.4893767133        0.6252309495
 C          3.2671780546       -1.3188748964       -0.4026813109
 C          3.9387798893       -2.6416036460       -0.6428599950
 C          5.3500085680       -2.4162696961       -1.2228019521
 C          6.4889683718       -2.8629511309       -0.3056594604
 H          6.5613990692       -3.9521062955       -0.3355185509
 H          7.4164232700       -2.4592450991       -0.7172362897
 C          6.3699732973       -2.4419471429        1.1621757970
 H          5.6777227216       -3.1075447901        1.6797453782
 H          7.3505937584       -2.5968418009        1.6170758774
 C          5.9350294869       -0.9921347303        1.4120677581
 H          6.5067259343       -0.6071143451        2.2588339142
 H          6.1762548960       -0.3645380722        0.5539604068
 C          4.4452765090       -0.8212828343        1.7639677197
 H          4.3430167346        0.0184216321        2.4577779137
 H          4.0853103738       -1.7171774146        2.2774232971
 H          5.4432205602       -2.9507473974       -2.1694154872
 H          5.4590055490       -1.3537872686       -1.4506760938
 H          3.3196979294       -3.1954205339       -1.3490689612
 H          3.9908620132       -3.2011081395        0.2885320498
 O          2.4122050144       -1.0022413527       -1.4078055803
 C          1.7349381220        0.2146730587       -1.4442311254
 O          1.0066573084        0.3421332634       -2.4446245029
 O          3.0261208891        1.5964703732        1.6393060235
 C          1.2633123582        2.4601406019       -0.3191350255
 C          0.0563883408        2.3734760559        0.5814157875
 C         -0.2076897869        3.3735629953        1.5104894601
 C         -1.3296474508        3.3059992632        2.3167732344
 C         -2.2119906747        2.2476202295        2.2035726921
 C         -1.9483223536        1.2331315547        1.2889511765
 C         -0.8161691131        1.2986672841        0.4895361694
 H         -0.6219826340        0.5052700325       -0.2179405257
 N         -2.8074124647        0.1283476150        1.1846628581
 S         -2.9764818216       -0.6270398723       -0.3166593086
 O         -1.9203201172       -1.5965691854       -0.4654069428
 O         -3.1115391550        0.3691267508       -1.3540765268
 C         -4.5319927154       -1.4651939385       -0.0716195560
 C         -5.6949456677       -0.8787586284       -0.5342571128
 C         -6.9038645007       -1.5195872531       -0.3124868417
 C         -6.9296954943       -2.7282102644        0.3669147681
 C         -5.7543045159       -3.3051755771        0.8247800166
 C         -4.5421381399       -2.6701111653        0.6054623368
 H         -3.6024293537       -3.0833568332        0.9334147250
 H         -5.7777165592       -4.2463721878        1.3499203650
 H         -7.8713385235       -3.2253103742        0.5382294020
 H         -7.8183506567       -1.0750746405       -0.6706461812
 H         -5.6237048384        0.0568341677       -1.0653141574
 H         -3.6978192641        0.2737875828        1.6406658416
 H         -3.0922204228        2.1958834644        2.8259110830
 H         -1.5232614745        4.0880333827        3.0349989993
 H          0.4817355650        4.1994467207        1.6056196880
 H          1.9860371164        3.1308825352        0.1750759841
 C          0.9288189371        3.0761477883       -1.6688772773
 C         -0.4326191424        3.0180232386       -2.2867410165
 C          0.0886914125        4.3166713877       -1.7530823255
 H          0.3745008625        5.0844171666       -2.4560105422
 H         -0.3462616343        4.6898917573       -0.8384665331
 H         -0.4865186096        2.8727551689       -3.3550474471
 H         -1.2196044317        2.5061792877       -1.7531913459
 H          1.7652617279        3.0067027621       -2.3573858172
