  62
        -98.94488402
 C          1.9204627070       -0.1742537158       -0.0563917483
 C          2.9397820139       -1.0493828712       -0.5023889567
 C          4.2513493118       -0.4362818025       -0.7479645964
 C          4.4015502386        0.8885154274       -0.5659149011
 C          5.6941172630        1.6336834808       -0.7283269057
 C          6.4644443015        1.7034015111        0.5977052155
 C          6.5999263732        0.3548222999        1.3048410869
 H          7.1856617881        0.5207510762        2.2116304023
 H          5.6099679628        0.0168223768        1.6198571958
 C          7.2646673370       -0.7410584677        0.4600035432
 H          7.8066905932       -0.2896430560       -0.3717460541
 H          7.9972753233       -1.2635920178        1.0787190138
 C          6.3004323328       -1.7996833607       -0.0783720862
 H          6.8926805137       -2.6318823499       -0.4680240343
 H          5.6893044596       -2.1881068754        0.7402481144
 C          5.3638282664       -1.3388862923       -1.2023472216
 H          5.9458479538       -0.8653005015       -1.9954359887
 H          4.8783465196       -2.2278651838       -1.6154960306
 H          5.9398330413        2.3894895407        1.2667938923
 H          7.4562414340        2.1140328795        0.3997645658
 H          6.2994007167        1.1409138234       -1.4866740842
 H          5.4666864656        2.6482038474       -1.0598913506
 O          3.3921165909        1.7015155092       -0.1620821386
 C          2.1301889135        1.1940426329        0.1142925115
 O          1.3061403007        2.0480914867        0.4918097656
 H         -1.7320736567        0.6809846448        0.9495061714
 C         -1.5764952743        0.6092843461       -0.1132171286
 C         -0.4845308024       -0.0698159273       -0.6280263080
 C         -0.3185384504       -0.1160793028       -2.0109931378
 C         -1.2114783667        0.5169645581       -2.8519549713
 C         -2.2977056044        1.2009717578       -2.3331050130
 C         -2.4765047117        1.2492753142       -0.9566891647
 N         -3.5601629398        1.9519253931       -0.4052111819
 S         -4.4779343628        1.2771601671        0.8170062268
 O         -5.6768713070        2.0850285317        0.8568966438
 O         -3.7190477211        1.2015332259        2.0383985043
 C         -4.8672940760       -0.3572680679        0.2196095271
 C         -4.0887296417       -1.4302536303        0.6025362522
 C         -4.3626576347       -2.6791834984        0.0671500098
 C         -5.4026234102       -2.8323913783       -0.8363928354
 C         -6.1785713570       -1.7445853289       -1.2077076574
 C         -5.9072522459       -0.4931428096       -0.6797121674
 H         -6.4917719226        0.3762796667       -0.9336865761
 H         -6.9895616768       -1.8680748662       -1.9072136169
 H         -5.6104409669       -3.8060916192       -1.2512045177
 H         -3.7614328456       -3.5263732115        0.3564464082
 H         -3.2915891066       -1.2736198895        1.3100652747
 H         -4.1518266630        2.4043697885       -1.0866725040
 H         -2.9924251055        1.7051066113       -2.9876220238
 H         -1.0643924547        0.4780872889       -3.9207414983
 H          0.5328033650       -0.6470597151       -2.4147282621
 C          0.5453881849       -0.7472344493        0.2402854678
 H          0.6039179704       -1.8053248470       -0.0547994274
 C          0.2498629563       -0.6726069669        1.7227127277
 C         -0.6587358293       -1.6790998588        2.3603923423
 C          0.8149083049       -1.7226409121        2.6299986213
 H          1.1735215494       -1.4237216331        3.6036126122
 H          1.3945103057       -2.5121097104        2.1740362777
 H         -1.3186241118       -1.3498675143        3.1497232026
 H         -1.0717521372       -2.4484274008        1.7252877262
 H          0.2282310722        0.3448476413        2.0978570381
 O          2.7590419939       -2.2825518051       -0.6898886042
