  62
        -98.94369485
 C         -1.7407466444       -0.4621791052       -0.3065561326
 C         -2.9513333024       -0.9273613955       -0.8723429679
 C         -4.1631966104       -0.6956643206       -0.0753467059
 C         -4.0558123375       -0.0951521826        1.1242667818
 C         -5.2129903344        0.2482167914        2.0161730140
 C         -5.7358294139        1.6624780432        1.7277688416
 C         -5.9828203288        1.9392240162        0.2447517335
 H         -6.3783405246        2.9540943228        0.1646192229
 H         -5.0274856194        1.9237761278       -0.2846874889
 C         -6.9513020762        0.9587521184       -0.4313800855
 H         -7.5355945060        0.4334785465        0.3250148479
 H         -7.6529507824        1.5268729994       -1.0458066726
 C         -6.2799179929       -0.0623172182       -1.3517503581
 H         -5.6204925742        0.4547931045       -2.0533743158
 H         -7.0593914257       -0.5555176550       -1.9387266050
 C         -5.4709815659       -1.1613161285       -0.6512114744
 H         -6.0842532761       -1.6362860750        0.1173489221
 H         -5.2160821129       -1.9155707728       -1.4016645050
 H         -6.6621922592        1.8083870350        2.2863059364
 H         -5.0013100923        2.3839200166        2.0927652775
 H         -6.0074337921       -0.4809468555        1.8695395574
 H         -4.8742854549        0.1997328345        3.0524105325
 O         -2.8717559692        0.3144686214        1.6460274118
 C         -1.6853356264        0.1504908942        0.9455383271
 O         -0.6769169602        0.5812258923        1.5343898026
 H          2.1937620467       -0.1689592385       -0.4463262583
 C          1.8248668103       -1.0937151628       -0.0378533621
 C          0.5171756341       -1.4858281892       -0.2720608135
 C          0.0784737443       -2.6970267562        0.2582835270
 C          0.9241373555       -3.4832947839        1.0151075097
 C          2.2277668324       -3.0838161812        1.2537808355
 C          2.6786028852       -1.8815420471        0.7234964086
 N          3.9805757896       -1.4365840775        0.9783500303
 S          4.8175791619       -0.4805932595       -0.1002615717
 O          4.5903257657       -0.8871321485       -1.4675586200
 O          6.1900265316       -0.5465468513        0.3554746880
 C          4.1940350140        1.1658000699        0.1637435630
 C          3.9075118567        1.5788580303        1.4492680713
 C          3.4413584721        2.8683051250        1.6484843860
 C          3.2752780579        3.7195913998        0.5668894961
 C          3.5750045971        3.2923141039       -0.7173379699
 C          4.0410346962        2.0036459403       -0.9231490344
 H          4.2786669379        1.6253319536       -1.9050463068
 H          3.4446202693        3.9565044828       -1.5570700281
 H          2.9074657830        4.7211672431        0.7253857131
 H          3.2028071454        3.2027859138        2.6452611013
 H          4.0391445143        0.8907509606        2.2674622650
 H          4.5752914615       -2.0765533413        1.4823180832
 H          2.8883259405       -3.6949138298        1.8497455750
 H          0.5683925901       -4.4177392960        1.4226853596
 H         -0.9400158992       -3.0100661481        0.0721950957
 C         -0.4475531406       -0.6525449058       -1.0782113469
 H         -0.7237241690       -1.2247873269       -1.9766657372
 C          0.1122317853        0.6873416883       -1.5071247932
 C          0.9717225629        0.7897641118       -2.7302152449
 C         -0.4245503764        1.3330174737       -2.7480386342
 H         -0.5614450643        2.4038068102       -2.7543303786
 H         -1.1781610417        0.7927061121       -3.3023499736
 H          1.7939832541        1.4886724044       -2.7228786544
 H          1.1754069563       -0.1189158742       -3.2765097841
 H          0.3406931366        1.3326767309       -0.6658581851
 O         -3.0143097628       -1.5129653239       -1.9874008394
