  62
        -98.93776443
 C         -2.0246057580       -0.9130897747       -0.0070342643
 C         -2.3127526259        0.0521004178        0.9823625258
 C         -2.4520952241        1.4450620420        0.5275045991
 C         -2.2896884986        1.7315149791       -0.7779063891
 C         -2.2953946064        3.0556827332       -1.5132547907
 C         -2.8686818153        4.3116773046       -0.8618398002
 C         -4.3759714423        4.2743758907       -0.6139773513
 H         -4.6539956811        5.1814282033       -0.0729870767
 H         -4.8878106194        4.2909702367       -1.5792765346
 C         -4.8854769422        3.0599106425        0.1578811795
 H         -4.7136461068        2.1544977647       -0.4276561677
 H         -5.9670204809        3.1680114465        0.2755247806
 C         -4.2839590488        2.8703564478        1.5492451395
 H         -4.8538752187        2.0826416535        2.0490012454
 H         -4.4011337558        3.7874768871        2.1295761098
 C         -2.8015679037        2.4561148704        1.5814370159
 H         -2.1435146611        3.3198815512        1.5128198535
 H         -2.6039069856        1.9742724933        2.5438195855
 H         -2.6668709440        5.1368335733       -1.5503329798
 H         -2.3366609253        4.5330610391        0.0587880658
 H         -2.8192379779        2.8694827158       -2.4562854218
 H         -1.2475307920        3.2457878696       -1.7728503231
 O         -2.0183187862        0.7625196888       -1.7002741019
 C         -1.8603670542       -0.5657408041       -1.3464816227
 O         -1.5936333312       -1.3234007963       -2.2993537136
 O         -2.4363944125       -0.2357984881        2.2060722334
 C         -1.7934800506       -2.3529716135        0.4058049295
 C         -0.3903001027       -2.7859591028        0.0507384603
 C         -0.0726139600       -4.0903084863       -0.3069100952
 C          1.2346815888       -4.4354894223       -0.6051211714
 C          2.2460821385       -3.4945436679       -0.5640569208
 C          1.9373079342       -2.1836832258       -0.2128718543
 C          0.6340670441       -1.8499889349        0.1128310379
 H          0.4114377826       -0.8340496372        0.4055738749
 N          2.9317252112       -1.1927546907       -0.2261315328
 S          2.6715364711        0.3318401614        0.4251894122
 O          2.3654899805        0.2422215606        1.8373911027
 O          1.7214160485        1.0409444555       -0.3957361988
 C          4.2986914528        1.0260713671        0.2028037631
 C          4.6414944677        1.5216039975       -1.0410884930
 C          5.9147669224        2.0345138928       -1.2309668332
 C          6.8200251104        2.0424424813       -0.1799174456
 C          6.4613175560        1.5441570683        1.0634781725
 C          5.1893248553        1.0292918836        1.2596138293
 H          4.8618559791        0.6404340677        2.2103605880
 H          7.1655909603        1.5551124657        1.8795471986
 H          7.8101807763        2.4424662588       -0.3305649797
 H          6.1953779810        2.4254689188       -2.1956865938
 H          3.9007994102        1.5017854043       -1.8238330898
 H          3.8659796240       -1.5388892396       -0.0631694966
 H          3.2615501985       -3.7623738491       -0.8109668357
 H          1.4677999972       -5.4532293974       -0.8790181844
 H         -0.8495911704       -4.8358220792       -0.3541380960
 H         -1.8853020974       -2.3618900058        1.5034459539
 C         -2.8591857546       -3.2572095168       -0.1805703026
 C         -3.3497086231       -4.4522287908        0.5796508287
 C         -4.2281186864       -3.2480380943        0.4291116201
 H         -5.0847535964       -3.3080432764       -0.2251398541
 H         -4.3795060466       -2.6126758969        1.2898094936
 H         -3.6073896411       -5.3434325177        0.0274508752
 H         -2.9160161872       -4.6409370261        1.5501934294
 H         -2.7918910915       -3.3256871938       -1.2605801052
