  62
        -98.93815864
 C         -1.0318272578       -1.8430292453        0.2952059697
 C         -1.6803174166       -1.3519260136       -0.8616492409
 C         -2.7946247541       -0.4083424042       -0.6417742692
 C         -3.0628949369        0.0292197142        0.6016492237
 C         -4.1151404643        0.9879801524        1.1174739746
 C         -4.9006680178        1.8795108274        0.1590569219
 C         -4.0730282060        2.9572131631       -0.5402276077
 H         -4.7180274976        3.4695700190       -1.2574630357
 H         -3.7586764901        3.6918769632        0.2051323027
 C         -2.8215496301        2.4643565322       -1.2626977640
 H         -2.3333976022        3.3308725614       -1.7171703652
 H         -2.1206071171        2.0414673737       -0.5403903747
 C         -3.0676060322        1.4367134968       -2.3648093710
 H         -3.8096044769        1.8175113019       -3.0694043725
 H         -2.1284283745        1.3058333830       -2.9097120696
 C         -3.5174765216        0.0485575733       -1.8771075478
 H         -4.5930896550        0.0139828416       -1.7209134039
 H         -3.2769894517       -0.6757783134       -2.6608431698
 H         -5.6602804169        2.3872091143        0.7597687093
 H         -5.4315132865        1.2753401732       -0.5707398272
 H         -4.8277959569        0.3737990441        1.6789416163
 H         -3.6058059032        1.6182309738        1.8526719592
 O         -2.3624265740       -0.4197616083        1.6831420975
 C         -1.3679471740       -1.3707621653        1.5664024114
 O         -0.8549245503       -1.7109496549        2.6500411236
 H          0.6996568036       -0.6464148717       -1.2186446999
 C          1.5658918215       -1.0391819226       -0.7066793786
 C          1.4431259432       -2.1752398791        0.0785822340
 C          2.5787733088       -2.6646419818        0.7141386876
 C          3.8014994700       -2.0336241731        0.5654421733
 C          3.9151930164       -0.8895487028       -0.2052052796
 C          2.7848743673       -0.3892300245       -0.8366282589
 N          2.8770298460        0.8175163555       -1.5693792542
 S          3.0875608183        2.1884390657       -0.6272014008
 O          2.9483909662        3.3108235328       -1.5258840373
 O          4.3449923231        2.0745761948        0.0657310214
 C          1.7445121684        2.1827674900        0.5501794390
 C          1.7809738003        1.2922584047        1.6060221884
 C          0.7138366363        1.2552141440        2.4891395550
 C         -0.3565472030        2.1185383297        2.3147649404
 C         -0.3721605936        3.0170319644        1.2593126892
 C          0.6809685153        3.0412240709        0.3585300938
 H          0.7030970960        3.7168674150       -0.4815186687
 H         -1.1997368477        3.6970086836        1.1344225387
 H         -1.1815782855        2.0817636376        3.0090814967
 H          0.7101448277        0.5416430633        3.2978040710
 H          2.6358033120        0.6477746794        1.7299279078
 H          2.0855270552        0.9625096947       -2.1818017037
 H          4.8492760399       -0.3609630255       -0.3019608718
 H          4.6735259589       -2.4276905429        1.0645476710
 H          2.4972993657       -3.5389224206        1.3419985788
 C          0.1034783836       -2.8509841368        0.2621790657
 H          0.1101826585       -3.3268545955        1.2527123045
 C         -0.0787742904       -3.9342418405       -0.7846163576
 C          0.4965448071       -5.2968502907       -0.5501279713
 C         -0.9868217236       -5.0898574391       -0.4953672418
 H         -1.5975525307       -5.4768661860       -1.2969269474
 H         -1.4694335800       -5.1150402565        0.4710928664
 H          0.9112987752       -5.8300987818       -1.3916452328
 H          1.0133143480       -5.4753483769        0.3803299517
 H         -0.0718660041       -3.5519466542       -1.7970307954
 O         -1.3630695148       -1.6617997152       -2.0416584954
