  62
        -98.93327764
 C          1.8961694395        1.6940800731       -0.0989695496
 C          2.6017433245        1.0639984591        0.9587580062
 C          3.7628890101        0.2334148055        0.6044207096
 C          4.1104682749        0.1169723963       -0.6903132890
 C          5.2467274804       -0.6327283827       -1.3541874893
 C          6.0290284569       -1.6962064721       -0.5879363425
 C          5.2276191487       -2.9477022700       -0.2306274826
 H          5.0078634984       -3.4941776568       -1.1514188749
 H          5.8545454715       -3.5874987210        0.3942977831
 C          3.9009347397       -2.7029580468        0.4848222590
 H          3.4381096623       -3.6758838409        0.6725886843
 H          3.2240795100       -2.1518117896       -0.1722075101
 C          4.0020161823       -1.9708082613        1.8218248918
 H          3.0130021670       -2.0023354856        2.2873642827
 H          4.6986524555       -2.4975255689        2.4769491364
 C          4.4255658212       -0.4940880377        1.7380585339
 H          4.0960120714        0.0039656289        2.6545113358
 H          5.5067942768       -0.3942146739        1.6808693602
 H          6.8507457642       -2.0067435049       -1.2390278441
 H          6.4779082377       -1.2646513795        0.3017558634
 H          5.9495834871        0.1344349866       -1.6975855736
 H          4.8183686016       -1.0823864119       -2.2558265219
 O          3.4338334734        0.7792450703       -1.6706433120
 C          2.3142228224        1.5701513248       -1.4219321031
 O          1.8469135394        2.0852407335       -2.4531504926
 O          2.2689320700        1.2022223227        2.1664295831
 C          0.6634953249        2.4724345735        0.3348444473
 C         -0.2968902654        1.5356493118        1.0273646974
 C         -0.9618476501        1.9246060881        2.1851899550
 C         -1.8415144136        1.0659255550        2.8181860220
 C         -2.0928574783       -0.1894524212        2.2938779754
 C         -1.4369511906       -0.5865577196        1.1353789246
 C         -0.5401408534        0.2699568106        0.5137577834
 H         -0.0263960466       -0.0629314331       -0.3770386751
 N         -1.6810176652       -1.8518314195        0.5545514084
 S         -2.5077357017       -1.8299060831       -0.9031403986
 O         -2.7272883029       -3.2169178496       -1.2465408548
 O         -1.7833555200       -1.0298803544       -1.8555112626
 C         -4.0659173986       -1.0578727991       -0.4998295859
 C         -5.1502054157       -1.8575158492       -0.1945166989
 C         -6.3379420993       -1.2579735221        0.1926384422
 C         -6.4170336612        0.1238672341        0.2790179161
 C         -5.3186500969        0.9126028961       -0.0272029647
 C         -4.1291508912        0.3192140164       -0.4198450000
 H         -3.2586275169        0.9023082851       -0.6725200441
 H         -5.3791247301        1.9869574031        0.0381533493
 H         -7.3402673765        0.5899844600        0.5849038241
 H         -7.1945261269       -1.8688431510        0.4278761759
 H         -5.0428745991       -2.9269442214       -0.2790477111
 H         -2.1368275020       -2.5009987420        1.1818954525
 H         -2.7811031199       -0.8634767750        2.7817007029
 H         -2.3393152094        1.3767974425        3.7236730773
 H         -0.7654185092        2.9021114615        2.6001453835
 H          1.0060386805        3.1965167689        1.0940946767
 C         -0.0189679113        3.2670916371       -0.7659697239
 C         -1.0395705961        2.6687237038       -1.6819229437
 C         -1.4602450315        3.6688859845       -0.6490761620
 H         -1.7424345466        4.6565394672       -0.9807283684
 H         -2.0166949014        3.3102098219        0.2039528429
 H         -1.0098841944        2.9658885658       -2.7192629939
 H         -1.2952153194        1.6273216852       -1.5531050048
 H          0.6537308632        3.9880139054       -1.2166928731
