  62
        -98.93401416
 C         -1.6367804377       -1.0858045649        0.3111255661
 C         -1.9254358228        0.2975196149        0.1715988863
 C         -3.2482500641        0.6436338174       -0.3627160137
 C         -4.0960460317       -0.3386675779       -0.7158069023
 C         -5.4614628693       -0.1775186479       -1.3303099593
 C         -6.5302317038        0.4983008037       -0.4500148728
 C         -6.6586394741        2.0118773246       -0.6617146078
 H         -6.2934925318        2.2588256931       -1.6593311314
 H         -7.7167774981        2.2806823511       -0.6400270315
 C         -5.9527627821        2.8925832623        0.3736207669
 H         -5.9117434770        3.9086923506       -0.0247055029
 H         -6.5535401194        2.9215121472        1.2856017273
 C         -4.5412852834        2.4579845234        0.7690039845
 H         -4.5965707829        1.5932578358        1.4346025068
 H         -4.0868738970        3.2640137177        1.3484339243
 C         -3.6229845011        2.0963069251       -0.4146727437
 H         -4.1043874815        2.3345280426       -1.3619528608
 H         -2.6905599360        2.6602945166       -0.3493653260
 H         -7.4859466407        0.0368705579       -0.7038525961
 H         -6.3327271726        0.2745131803        0.5980036731
 H         -5.3606092694        0.3760236647       -2.2666895327
 H         -5.7900991915       -1.1896157823       -1.5753094430
 O         -3.7744885379       -1.6531617538       -0.5878118288
 C         -2.5551797774       -2.0646407772       -0.0684992666
 O         -2.4390549632       -3.3049177959       -0.0117824586
 H          1.9730877380       -0.1022251003        0.2577048041
 C          1.8436063926       -0.9748931499       -0.3636092995
 C          0.7216113795       -1.7732663216       -0.1969403960
 C          0.5574104589       -2.8815440859       -1.0211979598
 C          1.5037172452       -3.1789822405       -1.9844198365
 C          2.6355913398       -2.3958056666       -2.1298510658
 C          2.8076096317       -1.2849302233       -1.3126526460
 N          3.9344628632       -0.4636883384       -1.4443939998
 S          4.6294149072        0.2569821454       -0.1041231087
 O          5.9871790539        0.5431115345       -0.5159653403
 O          4.4827483605       -0.5601004975        1.0773706327
 C          3.7486418769        1.7916223050        0.0825730824
 C          3.6680290099        2.6345412434       -1.0079368174
 C          3.0011073210        3.8410051575       -0.8724750439
 C          2.4305573872        4.1829707925        0.3442807211
 C          2.5237781753        3.3277751886        1.4308202722
 C          3.1900036150        2.1196980978        1.3013311022
 H          3.2809484398        1.4233378902        2.1205621557
 H          2.0757956441        3.5932060863        2.3749973285
 H          1.9079540534        5.1208349830        0.4473826484
 H          2.9250666759        4.5098148145       -1.7147661191
 H          4.1263334707        2.3354270242       -1.9358655155
 H          4.6245939252       -0.7836393659       -2.1076918499
 H          3.3800008177       -2.6401288207       -2.8725190108
 H          1.3653919519       -4.0394752456       -2.6217936827
 H         -0.3199369478       -3.4987505491       -0.9040103816
 C         -0.2753941843       -1.4345980626        0.8855661098
 H          0.0729325840       -0.5126484565        1.3711498583
 C         -0.3082996786       -2.5367286419        1.9272916814
 C          0.8803519764       -2.7095406379        2.8235215181
 C         -0.4056691356       -2.1749883776        3.3773832376
 H         -0.9897201959       -2.8085967328        4.0279752028
 H         -0.4554268154       -1.1257440375        3.6297568371
 H          1.7091562903       -2.0283824896        2.6944377697
 H          1.1789453791       -3.7109968681        3.0935009093
 H         -0.8253679368       -3.4282760885        1.5978902291
 O         -1.1087414426        1.2049966390        0.4824500236
