  62
        -98.93955880
 C          2.4662760789       -0.2339217348       -0.1788169649
 C          3.5599741064       -0.1831503155       -1.0749978307
 C          4.7904612098        0.4252714565       -0.5531956317
 C          4.8041470399        0.9044193402        0.7044342436
 C          6.0048814213        1.5000897360        1.3796023450
 C          6.8094944976        0.4291637108        2.1297312950
 C          7.1118777642       -0.8152787955        1.2949436655
 H          7.7071741594       -1.4871350922        1.9170347794
 H          6.1749824910       -1.3303437545        1.0708698828
 C          7.8605487817       -0.5345094595       -0.0154203598
 H          8.6656201309       -1.2645273550       -0.1224955329
 H          8.3220314849        0.4527829945        0.0255014955
 C          6.9962509236       -0.6374689928       -1.2733646725
 H          7.6589607765       -0.6361608419       -2.1429046470
 H          6.4597971505       -1.5896714546       -1.2726379109
 C          5.9758952253        0.4898703751       -1.4748697033
 H          6.4754939545        1.4574390318       -1.3935557705
 H          5.5726257511        0.3957323708       -2.4875815641
 H          7.7446951244        0.8768195881        2.4708950378
 H          6.2392373268        0.1211099245        3.0090834147
 H          5.6606969567        2.2502232652        2.0935930794
 H          6.6319458024        1.9841305358        0.6333030325
 O          3.7265806900        0.8571139847        1.5288544086
 C          2.5326903915        0.2848537159        1.1142105224
 O          1.6293313300        0.3002769495        1.9711969770
 O          3.5071389986       -0.6217159179       -2.2562645855
 C          1.1648302553       -0.8571177148       -0.6464520469
 C          0.0425633644        0.1507651659       -0.5902542567
 C          0.2600144630        1.4331476018       -1.0874774932
 C         -0.7451393580        2.3803829517       -1.0677588954
 C         -1.9939139606        2.0703590584       -0.5586036573
 C         -2.2285305370        0.7903170408       -0.0778300116
 C         -1.2156363476       -0.1620159695       -0.1008144786
 H         -1.4143194165       -1.1524063816        0.2784373456
 N         -3.4949464540        0.4673100923        0.4391158474
 S         -4.8418658603        1.0327574153       -0.4104573061
 O         -4.6379435971        0.8576735975       -1.8309135430
 O         -5.1265709427        2.3778420773        0.0228988159
 C         -6.1088335378       -0.0753057895        0.1755707137
 C         -6.7983440307        0.2417781784        1.3303277922
 C         -7.7644829716       -0.6364565739        1.7951967083
 C         -8.0221543365       -1.8104093887        1.1030441750
 C         -7.3223118595       -2.1145851322       -0.0550773343
 C         -6.3546774812       -1.2410816324       -0.5254343620
 H         -5.7947535695       -1.4317771307       -1.4270642124
 H         -7.5269043270       -3.0265651918       -0.5924866528
 H         -8.7753351020       -2.4915885534        1.4663981438
 H         -8.3129096876       -0.4024830938        2.6933470498
 H         -6.5699679544        1.1688160337        1.8297568420
 H         -3.5807408776       -0.5146071372        0.6630280862
 H         -2.7888844527        2.7986219596       -0.5377645805
 H         -0.5566881668        3.3718953767       -1.4523207363
 H          1.2336408965        1.6800846598       -1.4891297217
 H          1.3305484909       -1.1174287801       -1.7031193571
 C          0.8848023709       -2.1277208266        0.1291491957
 C          0.1302833441       -3.2560977324       -0.5068700652
 C          1.6029058209       -3.3835550945       -0.2612555731
 H          1.9423349185       -4.0478750706        0.5192221401
 H          2.2708772266       -3.3283076825       -1.1084875311
 H         -0.5403715832       -3.8392850495        0.1063529534
 H         -0.2027641591       -3.1236187098       -1.5252833569
 H          0.7397265096       -1.9428700636        1.1878136957
