  62
        -98.94307173
 C         -1.7861594128       -1.3898017893       -0.0671239913
 C         -3.1022409064       -1.2027398947        0.4345325104
 C         -3.8708399101       -0.0965812572       -0.1453349411
 C         -3.3091767993        0.6828147231       -1.0864311618
 C         -3.9599661994        1.8507568959       -1.7763290825
 C         -3.8836146984        3.1637536558       -0.9848993770
 C         -4.7951736107        3.2388883582        0.2406090382
 H         -4.8080802640        4.2807892335        0.5666878968
 H         -5.8136003878        2.9767077337       -0.0480276830
 C         -4.3484122931        2.3598366683        1.4172850580
 H         -3.3035230025        2.0711669202        1.2814365738
 H         -4.4026032519        2.9363342713        2.3434804114
 C         -5.1873973279        1.0982298110        1.6209343089
 H         -6.2086589062        1.3759602445        1.8912710928
 H         -4.7609748852        0.5334688203        2.4539072290
 C         -5.2412154978        0.1711252215        0.3995993998
 H         -5.8794534264        0.6015851405       -0.3720092221
 H         -5.6682787380       -0.7845189984        0.7138784506
 H         -4.1606610238        3.9710232072       -1.6667899434
 H         -2.8484859359        3.3280222507       -0.6774352205
 H         -3.4324463934        1.9873789578       -2.7229176189
 H         -5.0024916633        1.6147657057       -1.9920000855
 O         -2.0481213908        0.4749229092       -1.5425146677
 C         -1.2509727545       -0.5533299784       -1.0489265775
 O         -0.1257551877       -0.5958173190       -1.5785293126
 O         -3.6108850327       -1.9292755051        1.3284782691
 C         -0.9546588059       -2.4883130700        0.5757528441
 C          0.3509624046       -1.8996292222        1.0421256843
 C          0.4022232381       -1.1969358748        2.2422995870
 C          1.5701373840       -0.5788782417        2.6494639380
 C          2.7014349782       -0.6224510358        1.8531740040
 C          2.6511282974       -1.3035598207        0.6440032302
 C          1.4916931314       -1.9628706960        0.2584505036
 H          1.4640901844       -2.4864533838       -0.6841375377
 N          3.7725141405       -1.3044073096       -0.2016937231
 S          4.6519823182        0.1093399324       -0.3441200224
 O          5.2266709857        0.0673165063       -1.6715893762
 O          5.6055681758        0.1858893721        0.7374126588
 C          3.5085422845        1.4772381721       -0.2097535654
 C          2.3058585662        1.4406003608       -0.8859932865
 C          1.4499647937        2.5261565342       -0.7836922068
 C          1.8085015625        3.6274506669       -0.0229622635
 C          3.0234691148        3.6510791705        0.6446800923
 C          3.8807880374        2.5669358718        0.5532397020
 H          4.8292109261        2.5385909115        1.0651260052
 H          3.3023040590        4.5073870121        1.2374802614
 H          1.1373784376        4.4688505216        0.0509131969
 H          0.5022049363        2.4889719838       -1.2981987744
 H          2.0137219524        0.5770342082       -1.4619842591
 H          3.5923523552       -1.7099764844       -1.1086217684
 H          3.6173252882       -0.1356181691        2.1477626753
 H          1.5991057655       -0.0468192056        3.5880271278
 H         -0.4897279218       -1.1335534998        2.8500278561
 H         -1.5367772408       -2.7834591896        1.4632628331
 C         -0.7767522498       -3.7465962137       -0.2599352869
 C         -1.9310488879       -4.3069825319       -1.0348633675
 C         -0.7423817792       -3.7515825138       -1.7575220928
 H         -0.0725959567       -4.4444060532       -2.2466773833
 H         -0.8457540899       -2.8107164711       -2.2740141670
 H         -2.0853520099       -5.3754072749       -1.0361527788
 H         -2.8457542359       -3.7321088210       -1.0431212906
 H         -0.1347632781       -4.4670665981        0.2386391945
