  62
        -98.94045063
 C         -2.4786122597       -1.2042265430        0.0032219965
 C         -2.4410208394        0.0121436645       -0.7196159650
 C         -3.7447801287        0.6399492901       -0.9807731239
 C         -4.8671222588        0.0339050862       -0.5519122957
 C         -6.2524459095        0.5928201824       -0.6964570965
 C         -6.6387991996        1.4382461049        0.5254836054
 C         -5.5812846820        2.4676490680        0.9242649424
 H         -4.6845595669        1.9451340908        1.2653972514
 H         -5.9740692765        3.0231913885        1.7785613378
 C         -5.1984668358        3.4496040698       -0.1917514127
 H         -5.1633534127        4.4580870200        0.2255655547
 H         -5.9649038790        3.4462534126       -0.9675301459
 C         -3.8330908496        3.1843481692       -0.8290382209
 H         -3.0729729489        3.0940909670       -0.0485113094
 H         -3.5693897220        4.0499612767       -1.4426923279
 C         -3.7461759080        1.9440771370       -1.7275133548
 H         -2.7900647110        1.9849341585       -2.2580926740
 H         -4.5502775735        1.9662522956       -2.4659594668
 H         -6.8001128131        0.7678505086        1.3727296615
 H         -7.5803249131        1.9463130718        0.3097057779
 H         -6.3020870040        1.1967410295       -1.6002551518
 H         -6.9516057991       -0.2400401034       -0.7869587751
 O         -4.8628974514       -1.1473163665        0.1175418064
 C         -3.6735704671       -1.7885729880        0.4220810911
 O         -3.8095122755       -2.8512456306        1.0614991099
 H          1.5009903269       -1.3967809526       -0.0801581596
 C          1.0806555438       -0.8515042665        0.7474827252
 C         -0.2547145062       -0.9999018613        1.0869045619
 C         -0.7510275159       -0.2824033520        2.1727182406
 C          0.0619719206        0.5816610541        2.8791819686
 C          1.3875288958        0.7488522378        2.5188283843
 C          1.8992609218        0.0224348429        1.4504862711
 N          3.2578022431        0.1359171932        1.1057238402
 S          3.7344130413        0.0525990260       -0.5115904818
 O          3.0148498805        1.0224818879       -1.3060758891
 O          3.6666355949       -1.3178957335       -0.9511317532
 C          5.4417890350        0.5423538496       -0.3444286501
 C          5.7989683710        1.8552371108       -0.5868462921
 C          7.1236577741        2.2306859204       -0.4271397472
 C          8.0632827610        1.2925638963       -0.0270903308
 C          7.6901532411       -0.0219303620        0.2111931194
 C          6.3676630105       -0.4039878868        0.0519954265
 H          6.0328248998       -1.4147848385        0.2162304807
 H          8.4241965779       -0.7491231159        0.5187122210
 H          9.0933932751        1.5872393761        0.0966057288
 H          7.4170850104        3.2508537072       -0.6155932337
 H          5.0360433957        2.5474780838       -0.9055726519
 H          3.7037674181        0.9206137229        1.5621786936
 H          2.0205225216        1.4331640329        3.0633036186
 H         -0.3405428672        1.1376068348        3.7128594642
 H         -1.7903504298       -0.4062315368        2.4474763636
 C         -1.1844515003       -1.9232382178        0.3373790257
 H         -1.4591285824       -2.7517208014        1.0075451987
 C         -0.5714948455       -2.5012671395       -0.9211581640
 C          0.2678957832       -3.7402624174       -0.8521717180
 C         -1.0998843634       -3.7945070150       -1.4618547765
 H         -1.1862193127       -3.9090210538       -2.5319752951
 H         -1.8906264256       -4.2757528002       -0.9045057722
 H          0.4078855213       -4.1937902771        0.1175362079
 H          1.1288428434       -3.8130523133       -1.4999812529
 H         -0.2919406768       -1.7362183520       -1.6381182014
 O         -1.3760328548        0.5498092075       -1.1237182375
