  62
        -98.94052372
 C         -1.9893636412       -0.6711057287        0.7662419307
 C         -2.6302462012       -0.7975594498       -0.4918450392
 C         -4.0877707311       -0.5894115493       -0.4919008894
 C         -4.7208826511       -0.3064667280        0.6600403303
 C         -6.1894376810       -0.0248398174        0.7874651800
 C         -6.4843760305        1.4752732626        0.6501823785
 C         -5.8232142003        2.1266791812       -0.5644977421
 H         -4.7388874503        2.1081765010       -0.4324043620
 H         -6.1266094999        3.1758468013       -0.5757550031
 C         -6.1816049504        1.4765429500       -1.9081726915
 H         -6.4040396102        2.2653203494       -2.6300142522
 H         -7.0842360106        0.8741506804       -1.7991396909
 C         -5.0699354307        0.6181585990       -2.5144741706
 H         -4.1387731705        1.1899435087       -2.5395032611
 H         -5.3416329207        0.3919786981       -3.5490253704
 C         -4.7986711011       -0.7171092304       -1.8100760793
 H         -4.1342824213       -1.3020920812       -2.4527457787
 H         -5.7344008013       -1.2671040899       -1.6919824188
 H         -6.1246943704        1.9827671133        1.5483696280
 H         -7.5660994805        1.6105082528        0.5942292484
 H         -6.5196838711       -0.3620072063        1.7715265403
 H         -6.7283540111       -0.5827754880        0.0240566405
 O         -4.0753799911       -0.2014053070        1.8496670602
 C         -2.7053706411       -0.3775285874        1.9299565904
 O         -2.2418524211       -0.2578451364        3.0831763803
 O         -2.0369498412       -1.0628397110       -1.5692902389
 C         -0.5001511113       -0.8843104290        0.9550505510
 C          0.3524209791        0.2965475003        0.5499330099
 C         -0.0370780206        1.2142412795       -0.4160763410
 C          0.8044810598        2.2498577589       -0.7863252420
 C          2.0536530998        2.3870541091       -0.2095669921
 C          2.4574251995        1.4698214899        0.7518623588
 C          1.6075197891        0.4404659405        1.1284071298
 H          1.9270228789       -0.2612149289        1.8856761305
 N          3.7484713095        1.5819177200        1.3131434287
 S          5.0138523194        1.3241762386        0.2404504490
 O          6.1882812194        1.1389609590        1.0609846992
 O          5.0552104098        2.4091574276       -0.7048951120
 C          4.5814275690       -0.1993757921       -0.5805613995
 C          3.7542497390       -0.1569222029       -1.6851604896
 C          3.3440260787       -1.3491690233       -2.2595333784
 C          3.7689889783       -2.5557103729       -1.7255218973
 C          4.6036843383       -2.5815297121       -0.6184323972
 C          5.0078468086       -1.3929063617       -0.0328236783
 H          5.6566182386       -1.3684783511        0.8280682317
 H          4.9340877580       -3.5220805418       -0.2073167863
 H          3.4479322380       -3.4811739733       -2.1779104764
 H          2.6898563187       -1.3319401340       -3.1164687285
 H          3.4501663794        0.7991612768       -2.0781424505
 H          3.8788954393        0.9935961008        2.1247944193
 H          2.7278816701        3.1763546386       -0.5001254328
 H          0.4824366500        2.9566465983       -1.5362448527
 H         -1.0002653806        1.1091257694       -0.8897128410
 H         -0.3612694613       -1.0369380180        2.0346164611
 C          0.0017255484       -2.1218034099        0.2283175222
 C          1.0665371781       -2.9765342996        0.8424999931
 C         -0.3438856621       -3.4775203393        0.7630974135
 H         -0.5822567923       -4.2619453199        0.0612222543
 H         -0.9225634621       -3.5188600682        1.6750829035
 H          1.8090025880       -3.4151745205        0.1944870935
 H          1.4412770281       -2.7001086588        1.8163504628
 H          0.0079289684       -2.0023803109       -0.8473427779
