  62
        -98.92993293
 C          2.3897165534        1.0031161936        0.3526713686
 C          2.9381177766       -0.0205836415        1.1624944088
 C          3.8040857996       -1.0174466114        0.5028082530
 C          3.9851849440       -0.9323732712       -0.8279921334
 C          4.7884905675       -1.8385660331       -1.7231178827
 C          4.0859782178       -3.1769928856       -1.9994839358
 C          3.4689278245       -3.8427647432       -0.7725529929
 H          2.7411202173       -3.1634320971       -0.3251574630
 H          2.9215772345       -4.7251928999       -1.1142631208
 C          4.4653403157       -4.2942475738        0.2927172319
 H          5.1786997781       -4.9893245049       -0.1554505925
 H          3.9014779357       -4.8416751155        1.0523327557
 C          5.2458905996       -3.1805449552        0.9947844149
 H          6.0606981731       -2.8180566303        0.3737290120
 H          5.7065398475       -3.6179218084        1.8853864206
 C          4.3926832186       -2.0110603245        1.4756035895
 H          3.5513455691       -2.3964699975        2.0628235971
 H          4.9843956617       -1.4151470288        2.1811838655
 H          3.2839330029       -2.9949118929       -2.7190614015
 H          4.8061174328       -3.8545502941       -2.4613277390
 H          4.9133443837       -1.3098745521       -2.6707669098
 H          5.7763397851       -1.9999918589       -1.3018074348
 O          3.3843047058        0.0332008278       -1.5792907555
 C          2.5815268417        1.0195820213       -1.0294613925
 O          2.1189474303        1.8162977015       -1.8656464242
 O          2.7125080396       -0.1088412597        2.4003207517
 C          1.5267325373        2.0509658037        1.0321567560
 C          0.2329258251        2.2357615040        0.2800930959
 C         -0.1021101408        3.4043744101       -0.3896490437
 C         -1.3036796780        3.4999220680       -1.0695557362
 C         -2.1932136811        2.4422798141       -1.0947949895
 C         -1.8717325167        1.2698710750       -0.4226309647
 C         -0.6694390516        1.1788184262        0.2632604842
 H         -0.4144390414        0.2643025678        0.7853901045
 N         -2.7626280417        0.1796462921       -0.4540955623
 S         -4.4054618565        0.5250674130       -0.2571773832
 O         -4.9385544900        0.9508693319       -1.5268717477
 O         -4.5908149716        1.4430870565        0.8444542334
 C         -5.0540218811       -1.0821640318        0.1563712454
 C         -5.2984038780       -1.9819651372       -0.8638683220
 C         -5.7884283108       -3.2382690412       -0.5448396224
 C         -6.0249981014       -3.5718823043        0.7806363660
 C         -5.7759359166       -2.6577586261        1.7932635287
 C         -5.2839418755       -1.3999766945        1.4814523050
 H         -5.0846076023       -0.6547007502        2.2348352574
 H         -5.9635403572       -2.9188619476        2.8223566579
 H         -6.4089490267       -4.5494983477        1.0259015605
 H         -5.9858296274       -3.9510090505       -1.3292197942
 H         -5.1100539873       -1.6750810524       -1.8794272737
 H         -2.4724724299       -0.5652876779        0.1646965134
 H         -3.1316683972        2.5085894238       -1.6213584474
 H         -1.5499603536        4.4115256161       -1.5932851417
 H          0.5878008491        4.2319168269       -0.3998796363
 H          1.2858615840        1.6082821360        2.0133634876
 C          2.2448516105        3.3610769638        1.3190901924
 C          3.7116159648        3.3808722338        1.6263537334
 C          3.2042675217        3.9893689846        0.3551894101
 H          3.2071511976        5.0661242369        0.2671541012
 H          3.3904089882        3.4764694861       -0.5751792137
 H          4.0645728655        4.0364507983        2.4081352751
 H          4.2465015660        2.4441566092        1.5663148745
 H          1.6238559401        4.0392678623        1.8968466502
