  62
        -98.93984812
 C         -1.7970535072       -0.4846663638        0.8782075746
 C         -2.7941282998       -1.2117365276        0.1805211260
 C         -4.1714064039       -0.7226853115        0.3466745735
 C         -4.4219175001        0.3452423868        1.1234954215
 C         -5.7731832470        0.9485529680        1.3958607133
 C         -6.2465239399        1.9309730794        0.3157376990
 C         -6.6734828890        1.2894974307       -1.0052385653
 H         -7.3984771925        0.4996091333       -0.8062240208
 H         -7.1836813655        2.0611600931       -1.5852522213
 C         -5.5143367600        0.7290983753       -1.8412820955
 H         -4.5715917634        1.1534356986       -1.4877059293
 H         -5.6334968617        1.0390982876       -2.8819218438
 C         -5.4060453488       -0.7956914916       -1.8318832395
 H         -4.5325881793       -1.0805604111       -2.4234617964
 H         -6.2897567963       -1.2285763395       -2.3058755400
 C         -5.2516874112       -1.4090937743       -0.4341539772
 H         -6.1980433739       -1.3631936450        0.1040487690
 H         -4.9634997794       -2.4566791981       -0.5500381017
 H         -5.4495134378        2.6546975605        0.1291060704
 H         -7.1010245456        2.4762647303        0.7233427958
 H         -5.6865101257        1.4905223389        2.3401363357
 H         -6.5115889717        0.1554375914        1.5170926344
 O         -3.4380855380        1.0100276647        1.7873833267
 C         -2.1136349801        0.6246738214        1.6671999543
 O         -1.3172057850        1.3337818105        2.3164793034
 O         -2.5725062271       -2.2146753121       -0.5433368481
 C         -0.3187401628       -0.8365707881        0.8174505022
 C          0.3310163525       -0.1571318806       -0.3605525243
 C         -0.1742305807       -0.3170409020       -1.6482922116
 C          0.4156432023        0.3307349626       -2.7171266732
 C          1.5221579138        1.1403167618       -2.5270792845
 C          2.0325180034        1.3090677620       -1.2453503979
 C          1.4378889064        0.6574844051       -0.1718307380
 H          1.8259228088        0.8218013381        0.8223037496
 N          3.1421229419        2.1346059470       -1.0279890781
 S          4.2351759119        1.8233867344        0.1884529322
 O          3.6963175473        2.2040998764        1.4698702051
 O          5.4326925507        2.5243089410       -0.2241481527
 C          4.5328021977        0.0635725091        0.1520442652
 C          4.7453914306       -0.5593707837       -1.0622296965
 C          5.0057746490       -1.9200443831       -1.0814462499
 C          5.0603675740       -2.6312390767        0.1072787476
 C          4.8528636256       -1.9908170447        1.3188946253
 C          4.5829539779       -0.6311223403        1.3434091376
 H          4.4006118769       -0.0970777379        2.2626148135
 H          4.8927369093       -2.5439587227        2.2435552267
 H          5.2617118008       -3.6903720015        0.0899804292
 H          5.1644873118       -2.4211952511       -2.0225118171
 H          4.7066940524        0.0167077745       -1.9720881218
 H          3.5780696365        2.5096695721       -1.8566552715
 H          1.9804316165        1.6494205556       -3.3612210236
 H          0.0128813384        0.2017753464       -3.7103372029
 H         -1.0327571197       -0.9536760659       -1.7970593136
 H          0.1182898600       -0.3992430925        1.7294131854
 C         -0.0628480079       -2.3376877506        0.8636091932
 C          0.5683793923       -3.1073487453       -0.2542411021
 C          1.3437209300       -2.8409714870        0.9981076780
 H          1.5389348781       -3.6583371494        1.6752589067
 H          2.1347846588       -2.1073518926        0.9494931158
 H          0.2015038552       -4.1054503914       -0.4377411010
 H          0.8490074160       -2.5748676846       -1.1487281001
 H         -0.8223165976       -2.8599173442        1.4356742174
