  62
        -98.94395812
 C          1.7044548826        1.4517258061        0.5078086194
 C          2.5772602779        0.9773636756       -0.5023579093
 C          3.4378903987       -0.1553808117       -0.1223840712
 C          3.3044355666       -0.7150218454        1.0930733313
 C          4.0915794755       -1.8925712119        1.5899984697
 C          3.3905741682       -3.2202059334        1.2711317186
 C          2.9319549025       -3.3416909306       -0.1816261047
 H          2.4749561358       -4.3271996862       -0.2942126264
 H          2.1583988589       -2.5955071518       -0.3741402904
 C          4.0512027118       -3.1759168305       -1.2184225949
 H          5.0233153430       -3.3106931184       -0.7426671272
 H          3.9497161758       -3.9581556701       -1.9735039186
 C          4.0291621155       -1.8365535704       -1.9569226516
 H          4.7120030259       -1.9060794469       -2.8078260622
 H          3.0282644805       -1.6518730226       -2.3546027567
 C          4.4526841292       -0.6148262022       -1.1319499981
 H          5.4112671087       -0.8130047294       -0.6476114642
 H          4.5847790753        0.2214445757       -1.8245269204
 H          4.0750681538       -4.0363543363        1.5093960526
 H          2.5154514495       -3.3155170441        1.9184484820
 H          5.0802380736       -1.8754932019        1.1349698477
 H          4.2001065035       -1.7995720346        2.6720975684
 O          2.3929595257       -0.2872060807        2.0047819665
 C          1.5844214996        0.8031958169        1.7402896710
 O          0.8047043482        1.0978436159        2.6697009819
 O          2.6615944847        1.4637759063       -1.6589898353
 C          0.7835148857        2.6484084898        0.3095372560
 C         -0.4729518512        2.1569352273       -0.3663317996
 C         -0.5468263696        1.9296344863       -1.7359571436
 C         -1.6988838042        1.4053678724       -2.2954838282
 C         -2.7912643106        1.0877005893       -1.5067501481
 C         -2.7193459431        1.2989897596       -0.1361860951
 C         -1.5698084204        1.8377626216        0.4222867168
 H         -1.5087101215        1.9820534665        1.4928153611
 N         -3.8071818310        0.9398275163        0.6819924928
 S         -4.4273440896       -0.5984004988        0.4557959812
 O         -5.3823405386       -0.5761444977       -0.6241562357
 O         -4.9486686711       -0.9982363374        1.7440613521
 C         -3.0338660403       -1.6163694259       -0.0036433581
 C         -1.9214511192       -1.6266267279        0.8147275634
 C         -0.8319415699       -2.4017499590        0.4535648596
 C         -0.8738081001       -3.1552162698       -0.7094906347
 C         -1.9996563460       -3.1380955497       -1.5176203648
 C         -3.0898006123       -2.3589009426       -1.1654709421
 H         -3.9815118447       -2.3081180938       -1.7688754772
 H         -2.0282912391       -3.7253065121       -2.4211931029
 H         -0.0226121522       -3.7570449641       -0.9858994389
 H          0.0459265881       -2.4041499327        1.0812687633
 H         -1.9047935768       -1.0345653946        1.7165189919
 H         -3.6462337291        1.1171471761        1.6632768060
 H         -3.6928846965        0.6724399872       -1.9276481693
 H         -1.7456740178        1.2345024212       -3.3601061382
 H          0.3131326805        2.1382244626       -2.3522669113
 H          0.5069585553        2.9793053015        1.3199163184
 C          1.4331468059        3.8117872104       -0.4079950721
 C          0.7898786608        5.1617108788       -0.3163959606
 C          2.0800809629        4.8959900162        0.3981331593
 H          2.9840003696        5.3489140862        0.0194469096
 H          2.0577204284        4.8041223156        1.4746350335
 H          0.8051427897        5.7999138621       -1.1863548050
 H         -0.1089059080        5.2484396632        0.2758443656
 H          1.9096923249        3.5421830315       -1.3400520406
