  62
        -98.94786094
 C          0.7959779196        1.2040086805        0.0463034690
 C          1.4400417400        0.4722180010        1.0720821591
 C          2.3860664396       -0.5559451394        0.6236325891
 C          2.5503587189       -0.7832461601       -0.6921101208
 C          3.5116486085       -1.7622595706       -1.3103576208
 C          4.9430332685       -1.2226112709       -1.4439323318
 C          5.7292256792       -1.1203356203       -0.1361882623
 H          5.6808728693       -2.0728102400        0.3924370283
 H          6.7740134291       -0.9498669806       -0.4035168529
 C          5.2700919198        0.0107569103        0.7946626273
 H          4.6687688296        0.7273950801        0.2304627873
 H          6.1424534801        0.5508478604        1.1696016066
 C          4.4693646804       -0.4543697289        2.0110710480
 H          4.1625865308        0.4284507514        2.5778494277
 H          5.1039057506       -1.0649385187        2.6574981280
 C          3.2079367701       -1.2557417190        1.6635909891
 H          3.4816450998       -2.2551171192        1.3260923295
 H          2.5979303905       -1.3444412584        2.5662484595
 H          5.4830297981       -1.8963124013       -2.1132227017
 H          4.9036560784       -0.2412479011       -1.9219687323
 H          3.5259013587       -2.6874083103       -0.7344644103
 H          3.1356754479       -1.9759680211       -2.3123352705
 O          1.8322691185       -0.1296619605       -1.6420559708
 C          0.9589449989        0.8934759298       -1.3037518509
 O          0.4031101384        1.4334618993       -2.2776871109
 O          1.2494331807        0.6805555417        2.3008512891
 C         -0.0947918101        2.3741662708        0.4251365988
 C         -1.4898659104        2.1599867607       -0.1020708803
 C         -2.1167218607        3.0158528203       -0.9975645405
 C         -3.3920435810        2.7346817003       -1.4555880597
 C         -4.0653676809        1.6047419706       -1.0313164987
 C         -3.4518353406        0.7496004210       -0.1211762286
 C         -2.1755634303        1.0331239111        0.3367561806
 H         -1.7064834200        0.3737517914        1.0532312907
 N         -4.1227701805       -0.3878010987        0.3433515424
 S         -3.3287816203       -1.6814799184        1.0135556327
 O         -4.2955389905       -2.7579487483        0.9465440338
 O         -2.8578213396       -1.3528693678        2.3359228023
 C         -1.9516523809       -2.0832795792       -0.0474122278
 C         -0.8022651607       -2.5719790890        0.5390259419
 C          0.2379217989       -2.9971684696       -0.2703698684
 C          0.1155389182       -2.9165667403       -1.6483006284
 C         -1.0367161921       -2.4047832305       -2.2226530281
 C         -2.0861713316       -1.9917383399       -1.4179913978
 H         -2.9950453118       -1.6010422500       -1.8457360575
 H         -1.1216814026       -2.3279709010       -3.2946521981
 H          0.9233522378       -3.2530555108       -2.2781855987
 H          1.1350168690       -3.3903615595        0.1794067113
 H         -0.7412815001       -2.6046250184        1.6155183519
 H         -4.9673203908       -0.6420242888       -0.1450316670
 H         -5.0577883111        1.3839952905       -1.3929004981
 H         -3.8661258612        3.4030420500       -2.1580978498
 H         -1.6048223508        3.8968012501       -1.3465757712
 H         -0.1417042595        2.3609413714        1.5241144089
 C          0.5386110199        3.6759376705       -0.0207265922
 C          0.1902509804        4.9568462909        0.6746755273
 C          1.5408528704        4.3389996908        0.8738346369
 H          2.3991454003        4.8152751205        0.4239279562
 H          1.7533047809        3.8628080913        1.8200813071
 H          0.1225513902        5.8611730406        0.0892612769
 H         -0.5157740692        4.9050130615        1.4896271477
 H          0.7279849393        3.7063130199       -1.0878983323
