  62
        -98.94329664
 C         -1.9993520182       -1.1367338700        0.1901410544
 C         -2.5998597398       -0.2908692782        1.1589060689
 C         -4.0027976969        0.0668000390        0.9304184127
 C         -4.6426860188       -0.4110023064       -0.1523814076
 C         -6.0853062417       -0.1732595118       -0.5075672771
 C         -6.3389865831        1.1441677912       -1.2525389193
 C         -6.2228066744        2.4064032440       -0.3973408423
 H         -6.6342045786        3.2302690399       -0.9839319303
 H         -6.8434377258        2.2994944517        0.4929142952
 C         -4.7868719819        2.7620097467        0.0128822481
 H         -4.0812619421        2.2232473654       -0.6241227261
 H         -4.6143566073        3.8280678107       -0.1518541637
 C         -4.4539711473        2.4708443670        1.4763436801
 H         -5.0628933449        3.1060043061        2.1236763697
 H         -3.4045358916        2.7262172869        1.6450036710
 C         -4.6598133352        1.0087025538        1.8936502497
 H         -4.1951968155        0.8627662347        2.8719183066
 H         -5.7239372368        0.7879165861        1.9755951627
 H         -5.6454592929        1.2092464618       -2.0941272843
 H         -7.3518429613        1.0986012255       -1.6593544006
 H         -6.3845614594       -0.9985147479       -1.1573112185
 H         -6.6943561498       -0.2042340492        0.3964019135
 O         -4.0318557589       -1.2098492455       -1.0638262023
 C         -2.6970718038       -1.5724559574       -0.9370863115
 O         -2.2841880533       -2.2772225793       -1.8773296438
 H          0.8711303267        0.5977867579        1.2547657525
 C          1.0305952073        0.4096067625        0.2011850855
 C          0.3605129976       -0.6419076959       -0.4086040637
 C          0.5576676781       -0.8601150734       -1.7676608100
 C          1.4058215029       -0.0413842425       -2.4917888908
 C          2.0803513327        1.0000870124       -1.8785838414
 C          1.8861400135        1.2277871866       -0.5231512028
 N          2.6046254290        2.2626760606        0.1127278840
 S          4.2749721900        2.1064572360        0.0317586147
 O          4.7903686329        2.8405982149        1.1653413727
 O          4.7310251479        2.5384487855       -1.2647175851
 C          4.5510651403        0.3550215534        0.2280286149
 C          4.3806639723       -0.1930900857        1.4840016598
 C          4.4948254752       -1.5649548404        1.6379653639
 C          4.7653882885       -2.3623602076        0.5362201858
 C          4.9368997028       -1.7963814307       -0.7171628963
 C          4.8274607762       -0.4242798400       -0.8767281093
 H          4.9537971382        0.0548452054       -1.8334081868
 H          5.1481907169       -2.4191694403       -1.5712041934
 H          4.8425275642       -3.4313342968        0.6571550282
 H          4.3657564420       -2.0082804658        2.6126264243
 H          4.1742055470        0.4590333164        2.3178476433
 H          2.3193854178        2.4103145038        1.0707811168
 H          2.7564993793        1.6377745688       -2.4250967404
 H          1.5467436138       -0.2184295148       -3.5472069347
 H          0.0229038387       -1.6604587107       -2.2538987196
 C         -0.5466558186       -1.5182056360        0.4207859771
 H         -0.3585728297       -1.2795913627        1.4763980133
 C         -0.2552798236       -2.9895346769        0.2034558484
 C          1.0531863006       -3.5372125163        0.6877613954
 C         -0.2201726569       -3.9119707366        1.3831101853
 H         -0.5999294981       -4.9153834980        1.2620571441
 H         -0.4153851997       -3.4877137693        2.3572880174
 H          1.5501943134       -4.2836222143        0.0881965711
 H          1.7248641656       -2.8529851077        1.1844647221
 H         -0.6562276501       -3.3812518916       -0.7215006320
 O         -1.9902134378        0.1348460346        2.1770090260
