  62
        -98.94149924
 C         -1.6107754685       -1.1793827250        0.1661823565
 C         -1.6634327209        0.1643310312        0.6173792427
 C         -2.7493953124        0.9945792100        0.0827494083
 C         -3.6114513923        0.4542086346       -0.7977291522
 C         -4.7942395740        1.1642763558       -1.3884565374
 C         -6.0533130519        0.9501927769       -0.5369748914
 C         -5.8426843821        1.2169889560        0.9534419383
 H         -6.8036322752        1.0668250841        1.4502960095
 H         -5.1537218975        0.4706492235        1.3557861033
 C         -5.3129827635        2.6207999784        1.2779336675
 H         -5.4766284276        3.2844344959        0.4281465266
 H         -5.8820761845        3.0242381307        2.1181390310
 C         -3.8372407005        2.6644377461        1.6787929895
 H         -3.6504569670        1.9323021879        2.4686767607
 H         -3.6271204758        3.6533768273        2.0950831957
 C         -2.8288089687        2.4214982200        0.5486212328
 H         -3.0481717541        3.0887755294       -0.2877212243
 H         -1.8358740593        2.6668762389        0.9376916372
 H         -6.8422115809        1.6018585716       -0.9169009237
 H         -6.3808610555       -0.0851229151       -0.6564356217
 H         -4.5722659443        2.2268284527       -1.4657218477
 H         -4.9709557502        0.7644441188       -2.3882926057
 O         -3.5240889138       -0.8308225540       -1.2188215575
 C         -2.5258979052       -1.6836013260       -0.7593778988
 O         -2.5817768294       -2.8247356303       -1.2503583173
 H          1.9949693537       -1.1680576651        1.4023236175
 C          1.9249426507       -1.4256548188        0.3563518236
 C          0.7307151565       -1.8953177197       -0.1684003490
 C          0.6674420720       -2.2022728922       -1.5252267320
 C          1.7820321910       -2.0508842073       -2.3285050152
 C          2.9693905178       -1.5687792397       -1.8037938572
 C          3.0388812699       -1.2474735742       -0.4542053462
 N          4.2265409419       -0.7462537904        0.1084723230
 S          4.1536854443        0.6695879604        1.0054357869
 O          5.5315224663        1.0971462452        1.1145691458
 O          3.4646303113        0.4293163819        2.2457310074
 C          3.2534291374        1.8010999239       -0.0385444446
 C          3.9770522526        2.5264013897       -0.9665882410
 C          3.3039455274        3.3561902742       -1.8472290090
 C          1.9201945425        3.4364686645       -1.7954670698
 C          1.2100772475        2.7007043039       -0.8604806399
 C          1.8770723774        1.8741077379        0.0312224779
 H          1.3327763052        1.3032798982        0.7675791026
 H          0.1333976021        2.7542264037       -0.8134728713
 H          1.3916056733        4.0764758851       -2.4842767498
 H          3.8560529665        3.9331253529       -2.5715410959
 H          5.0515723529        2.4378932354       -0.9674196388
 H          4.9975036757       -0.6990455318       -0.5431967172
 H          3.8358529232       -1.4413662941       -2.4347754621
 H          1.7236953602       -2.3001478395       -3.3772045782
 H         -0.2643048906       -2.5605660104       -1.9368003108
 C         -0.4806015990       -2.0308495410        0.7183507117
 H         -0.2275690355       -1.5688723141        1.6864892630
 C         -0.8760464260       -3.4736536456        0.9973057240
 C         -0.2835386785       -4.6518603019        0.2895152981
 C          0.0853921997       -4.3757104615        1.7140136700
 H         -0.2910429061       -5.0278806652        2.4875091589
 H          1.0745960631       -3.9867932723        1.9073571765
 H         -0.9381998685       -5.4821205401        0.0728306180
 H          0.4605181364       -4.4754401047       -0.4707310398
 H         -1.9211777129       -3.5623559031        1.2751012210
 O         -0.8350549403        0.6462015823        1.4369876737
