  62
        -98.94367247
 C         -2.6304279818       -0.1404229618       -0.2173534173
 C         -2.1706565298       -0.9282287664        0.8673494761
 C         -1.7420788020       -2.2964013168        0.5315110804
 C         -1.7764412188       -2.7115680512       -0.7463610554
 C         -1.3314872291       -4.0620294981       -1.2278759253
 C          0.1451647526       -4.0560231804       -1.6437878942
 C          1.0842917519       -3.4456850327       -0.6024838441
 H          2.1027937535       -3.5536292500       -0.9838363485
 H          0.8918991063       -2.3724746269       -0.5243098344
 C          0.9920427883       -4.0827354048        0.7908310661
 H          0.5241067074       -5.0660877939        0.7192942926
 H          2.0044866296       -4.2295719657        1.1730572776
 C          0.2478010642       -3.2380405238        1.8270254766
 H          0.6440049954       -2.2191075519        1.8195791834
 H          0.4485249990       -3.6594489475        2.8163485777
 C         -1.2760798176       -3.1688834292        1.6630553326
 H         -1.6824390129       -4.1782031351        1.5618202246
 H         -1.6861272692       -2.7215610631        2.5734976243
 H          0.4475385970       -5.0851374693       -1.8489831164
 H          0.2428423469       -3.4794430673       -2.5665499702
 H         -1.4937891078       -4.7926698701       -0.4375594850
 H         -1.9407299251       -4.3328733424       -2.0922744974
 O         -2.2085524943       -1.9243600378       -1.7648840740
 C         -2.6232817286       -0.6269760466       -1.5272246681
 O         -2.9830378281       -0.0113256878       -2.5530518650
 H         -0.5002088956        0.9626528440        0.7540246510
 C         -0.6367045478        1.8865436386        0.2136209028
 C         -1.8883198231        2.2379757479       -0.2655914491
 C         -2.0278023266        3.4500601914       -0.9330293435
 C         -0.9350169043        4.2742149613       -1.1320424413
 C          0.3229633863        3.8922472722       -0.7009300361
 C          0.4705505609        2.6862280615       -0.0265913024
 N          1.7268972411        2.2421165610        0.4173566725
 S          2.0251837604        0.5802506001        0.2766844492
 O          1.4171087473        0.0728004106       -0.9321248302
 O          1.6549677020       -0.0606703819        1.5118902435
 C          3.8019236421        0.5785515703        0.1207013937
 C          4.5743642776        0.6065165209        1.2664168975
 C          5.9542473648        0.6444399677        1.1428081405
 C          6.5352064714        0.6546112409       -0.1166380113
 C          5.7470577120        0.6232839952       -1.2574139167
 C          4.3663614354        0.5865621449       -1.1407796106
 H          3.7127816760        0.5516624202       -1.9979054840
 H          6.2010776110        0.6269807247       -2.2352297258
 H          7.6092427027        0.6840016250       -0.2100779701
 H          6.5700242480        0.6651505652        2.0273644859
 H          4.0766421708        0.5877784950        2.2219901862
 H          2.4924009189        2.7944324514        0.0550944088
 H          1.1830314732        4.5173836756       -0.8871827065
 H         -1.0579211771        5.2117443949       -1.6525660824
 H         -2.9966682551        3.7344060237       -1.3150777655
 C         -3.0685227416        1.3092413359       -0.0862586459
 H         -3.7568551538        1.4918283770       -0.9246056254
 C         -3.7970626363        1.6273840681        1.2048000431
 C         -4.8278254848        2.7144154500        1.2221878740
 C         -5.2485020519        1.2804960147        1.3342467520
 H         -5.6046788337        0.9130140222        2.2844959563
 H         -5.7273159200        0.8208572020        0.4815646276
 H         -4.8966942749        3.3404004521        2.0983599422
 H         -5.0360419280        3.2279418960        0.2960507618
 H         -3.1780428939        1.5039731669        2.0837714661
 O         -2.1199116019       -0.5386013417        2.0645629507
