  62
        -98.94291944
 C          2.0340326905        0.9829617299        0.4325666703
 C          2.6821750601       -0.0689174104        1.1325468401
 C          4.1097186901       -0.2552481207        0.8553740903
 C          4.7334886604        0.5721050894       -0.0023570594
 C          6.1912149405        0.5322570691       -0.3726013392
 C          6.5253159204       -0.4738692407       -1.4824144095
 C          6.4749374100       -1.9440028408       -1.0643872798
 H          7.0792723998       -2.0869351112       -0.1680481498
 H          6.9398404299       -2.5213932907       -1.8659885199
 C          5.0588411998       -2.4862051805       -0.8244058402
 H          4.9517304296       -3.4563395504       -1.3149337504
 H          4.3279688000       -1.8151288502       -1.2818191501
 C          4.6952515795       -2.6818000308        0.6476814997
 H          5.3337945093       -3.4532210811        1.0841247796
 H          3.6607085895       -3.0312186406        0.7015011795
 C          4.8105124397       -1.4119930911        1.5011276201
 H          5.8586935198       -1.1715111714        1.6783702503
 H          4.3262304096       -1.5998162112        2.4627089400
 H          7.5371020505       -0.2518758809       -1.8292765393
 H          5.8431545905       -0.3097842903       -2.3196783995
 H          6.7879497203        0.3108726187        0.5127176408
 H          6.4496669008        1.5328786091       -0.7255648190
 O          4.0867877508        1.5838935597       -0.6341881993
 C          2.7266142708        1.8039758400       -0.4581831894
 O          2.2894125711        2.7489589203       -1.1427638892
 O          2.0931883398       -0.8130548605        1.9626469099
 C          0.5522769305        1.1697904202        0.7112261002
 C         -0.3011424295        0.5171226707       -0.3504000101
 C         -0.2498982092        0.9260801510       -1.6797910400
 C         -1.0414566093        0.3113009615       -2.6319596503
 C         -1.9129316796       -0.7041635984       -2.2771201407
 C         -1.9749003098       -1.1174733487       -0.9524283108
 C         -1.1644349898       -0.5113071592       -0.0011471605
 H         -1.2145919100       -0.8543131494        1.0213722294
 N         -2.8536349702       -2.1443489686       -0.5567884812
 S         -3.9661616202       -1.8230980386        0.6524681088
 O         -3.2848071303       -1.5612652891        1.8933334489
 O         -4.8699394205       -2.9510474684        0.6363390884
 C         -4.8152650198       -0.3582863583        0.0897900691
 C         -5.9921600597       -0.5010855878       -0.6191706711
 C         -6.6175013994        0.6307907025       -1.1164764609
 C         -6.0511786891        1.8793074923       -0.9079825605
 C         -4.8672476192        2.0054664118       -0.1977150703
 C         -4.2404033995        0.8779557115        0.3087181594
 H         -3.3205227196        0.9417585011        0.8663340396
 H         -4.4245582890        2.9752087416       -0.0365981000
 H         -6.5349595788        2.7601179025       -1.2996869404
 H         -7.5399483293        0.5361986428       -1.6664046711
 H         -6.3980106300       -1.4907162577       -0.7537986415
 H         -3.3176206602       -2.6017714183       -1.3292392613
 H         -2.5347956896       -1.1791570581       -3.0209318509
 H         -0.9861040490        0.6324313817       -3.6610069902
 H          0.4268471010        1.7188941909       -1.9587708897
 H          0.3723985302        0.6337637900        1.6536697300
 C          0.1471016108        2.6181909903        0.9033343705
 C         -1.0446711492        2.9303669503        1.7558676004
 C          0.3340965008        3.2575072099        2.2446912907
 H          0.6394708211        4.2922024198        2.2831104110
 H          0.7528287906        2.6497197596        3.0338979506
 H         -1.6908378990        3.7433181806        1.4629086605
 H         -1.5582173395        2.1028947103        2.2239284201
 H          0.3226009311        3.2351928004        0.0320964807
