  62
        -98.94036234
 C          2.1769664517        0.7324767266        0.1881906814
 C          3.0230216934        0.0945968759        1.1303182321
 C          3.8313696633       -1.0236176168        0.6268060801
 C          3.6810812804       -1.4174919586       -0.6507546435
 C          4.4750479162       -2.5054419109       -1.3124219777
 C          5.7365096765       -1.9423034428       -1.9820398050
 C          6.5586374557       -1.0237829298       -1.0779248793
 H          7.4379530974       -0.7110989335       -1.6450789092
 H          5.9791845584       -0.1228986237       -0.8629648735
 C          7.0042185335       -1.6660278535        0.2433005088
 H          6.9298905001       -2.7516893913        0.1711372909
 H          8.0552753035       -1.4237409945        0.4136424583
 C          6.2322300168       -1.1867651382        1.4741488321
 H          6.2267175753       -0.0939831706        1.5009538126
 H          6.7636414082       -1.5321247420        2.3649835795
 C          4.7838361261       -1.6792448994        1.5866470014
 H          4.7550462575       -2.7654443919        1.4773977524
 H          4.4224745322       -1.4251911022        2.5877060015
 H          6.3547184726       -2.7791974689       -2.3117563592
 H          5.4352109005       -1.3734799308       -2.8646881435
 H          4.7477772792       -3.2525529431       -0.5694362583
 H          3.8485320564       -2.9739732384       -2.0732340325
 O          2.8052104354       -0.8317460705       -1.5045282748
 C          2.0353517613        0.2593184906       -1.1176577938
 O          1.2839639631        0.6858174301       -2.0122935779
 H         -0.1957150207       -0.1800237401        1.1859470588
 C         -0.7442994185        0.5706798789        0.6285263220
 C         -0.0939111082        1.7417367966        0.2565796475
 C         -0.8095263322        2.6969593598       -0.4518023783
 C         -2.1337101892        2.4730501593       -0.7875415781
 C         -2.7701465156        1.2993091999       -0.4309637231
 C         -2.0657526721        0.3376395459        0.2822865190
 N         -2.6955035819       -0.8698955734        0.6305993384
 S         -4.2020280585       -0.8084019549        1.3668428984
 O         -4.3621785934        0.3984396178        2.1448307917
 O         -4.3191290374       -2.0568610714        2.0887717252
 C         -5.3494227502       -0.8159819856        0.0058567063
 C         -5.2566372786       -1.8379068902       -0.9184518255
 C         -6.1474270123       -1.8627530135       -1.9795747082
 C         -7.1123853222       -0.8732051246       -2.0957729029
 C         -7.1953172671        0.1434769383       -1.1568130330
 C         -6.3064686467        0.1748402854       -0.0934791321
 H         -6.3286457609        0.9487679369        0.6570993295
 H         -7.9464522538        0.9113994241       -1.2487538189
 H         -7.8036966919       -0.8949024850       -2.9233540124
 H         -6.0854547922       -2.6515578730       -2.7119355355
 H         -4.4941892813       -2.5883466133       -0.7912473705
 H         -2.0906328565       -1.5228300377        1.1069282593
 H         -3.7978938103        1.1190089462       -0.7002784517
 H         -2.6759179554        3.2222276252       -1.3440461264
 H         -0.3270588070        3.6096798608       -0.7596874163
 C          1.3471408192        1.9078139151        0.6716698730
 H          1.3860986180        1.8311761348        1.7721526417
 C          1.9279925827        3.2688067595        0.3168221936
 C          3.3924436762        3.4389606531        0.0466394469
 C          2.4021456995        3.6019133362       -1.0650304278
 H          2.2187587503        4.5970247661       -1.4432592675
 H          2.3341118667        2.8295001636       -1.8145522530
 H          3.8865910788        4.3177657097        0.4331604736
 H          4.0099924569        2.5523185837        0.0555782858
 H          1.4503178688        4.0693947212        0.8734561712
 O          3.0926552425        0.4411882259        2.3407605708
