  62
        -98.94502215
 C         -2.5507048720       -0.1329999952        0.4335293076
 C         -2.3879745017        0.5420751451       -0.7999265474
 C         -2.1813126483        1.9939461073       -0.7129641238
 C         -2.1594941285        2.5864605686        0.4944568168
 C         -1.9556898015        4.0555932355        0.7263602265
 C         -0.4783114037        4.4036594234        0.9483682561
 C          0.4682330156        3.8287659429       -0.1057578796
 H          0.5141858303        2.7422745019        0.0008763682
 H          1.4676117439        4.2070117001        0.1227497757
 C          0.1089222960        4.1865062132       -1.5544356485
 H          1.0265493951        4.4569876450       -2.0809900257
 H         -0.5446445005        5.0599025676       -1.5710044516
 C         -0.5386642122        3.0492590779       -2.3472403176
 H          0.0433248832        2.1340532225       -2.2083918830
 H         -0.5012918615        3.3086057884       -3.4088835203
 C         -2.0017786988        2.7436484766       -2.0024336319
 H         -2.4005208609        2.0900629154       -2.7838837306
 H         -2.5820579284        3.6689343713       -1.9976920553
 H         -0.1730971965        4.0165865973        1.9236314242
 H         -0.3845645409        5.4916717226        0.9691465384
 H         -2.5217721020        4.3403610551        1.6154695199
 H         -2.3430496357        4.6054157705       -0.1295474071
 O         -2.3133236541        1.9031337660        1.6590278283
 C         -2.4875967134        0.5289016213        1.6576363437
 O         -2.5858625660        0.0205732702        2.7954822944
 O         -2.4255632348       -0.0366537869       -1.9177550439
 C         -2.7365303229       -1.6385031038        0.4475248898
 C         -1.5836151211       -2.3163847417       -0.2546613594
 C         -1.7313208411       -3.4630208860       -1.0245087672
 C         -0.6295532870       -4.0452462727       -1.6280838730
 C          0.6321150786       -3.4994369693       -1.4846638120
 C          0.7896319850       -2.3478936254       -0.7191419077
 C         -0.3109316371       -1.7836074674       -0.0976799680
 H         -0.1781524189       -0.9013160293        0.5115650495
 N          2.0481622396       -1.7349522328       -0.6053429432
 S          2.3460916428       -0.5954032096        0.5938367167
 O          2.1022982323       -1.1619061232        1.9037875110
 O          1.6384785096        0.6177389287        0.2738675634
 C          4.0963259049       -0.3562967541        0.3546799991
 C          4.5220498515        0.5567571716       -0.5911238263
 C          5.8824039515        0.7211529715       -0.7990918638
 C          6.7892991549       -0.0269076525       -0.0631342853
 C          6.3474461568       -0.9377893556        0.8846831328
 C          4.9883451739       -1.1069244280        1.0972639114
 H          4.5986024067       -1.7936004090        1.8315195733
 H          7.0546346961       -1.5149638932        1.4582200372
 H          7.8473132076        0.1034377651       -0.2267543772
 H          6.2292753751        1.4312104830       -1.5323185409
 H          3.7796769735        1.1206132133       -1.1318692637
 H          2.8251131427       -2.3634075091       -0.7509432634
 H          1.4868408366       -3.9483815915       -1.9664975020
 H         -0.7570556299       -4.9370299807       -2.2228875316
 H         -2.7086543795       -3.8986873147       -1.1539022202
 H         -2.7126739784       -1.9389616479        1.5066447702
 C         -4.0873537107       -2.0051123401       -0.1343342426
 C         -4.8425994153       -3.1912962786        0.3832163945
 C         -5.3111328686       -1.8053799300        0.7066217950
 H         -6.2087177221       -1.4369770312        0.2332809222
 H         -5.1626601008       -1.4337475828        1.7105353969
 H         -5.4243144068       -3.7760675207       -0.3133643373
 H         -4.3884743985       -3.7672969715        1.1755165561
 H         -4.1597599936       -1.7683902692       -1.1896681460
