  62
        -98.94417334
 C         -1.4606553453       -1.5109045431       -0.9552051634
 C         -2.6709555737       -1.2284142240       -0.2706054006
 C         -3.3050268579        0.0588706694       -0.5654303319
 C         -2.7423555943        0.8851507493       -1.4649956257
 C         -3.2468432040        2.2465196543       -1.8576070533
 C         -2.7898824795        3.3561367245       -0.9003844063
 C         -3.5066870241        3.3794259600        0.4502973405
 H         -3.2714649670        4.3365224943        0.9204077715
 H         -4.5857477192        3.3483082167        0.2922348420
 C         -3.0880549462        2.2508802287        1.4034667743
 H         -2.1337814576        1.8316221686        1.0732675535
 H         -2.9184214255        2.6641745892        2.4012110811
 C         -4.1144390862        1.1264289922        1.5502273059
 H         -5.0173875976        1.5168125950        2.0262296723
 H         -3.6893130752        0.3624253690        2.2066723587
 C         -4.5120834103        0.4487746925        0.2325497185
 H         -5.0631355413       -0.4645929245        0.4710069705
 H         -5.1575441140        1.1064512257       -0.3493824729
 H         -2.9615460322        4.3134327855       -1.3986969977
 H         -1.7146598369        3.2511316121       -0.7320612999
 H         -4.3355281897        2.2373421013       -1.9184237853
 H         -2.8424494833        2.4570455475       -2.8500586313
 O         -1.6182023002        0.5561922973       -2.1464795201
 C         -0.9132607405       -0.6102630556       -1.8680501356
 O          0.1450998862       -0.7095109855       -2.5172573614
 O         -3.1935997729       -2.0235270723        0.5573292293
 C         -0.7317236974       -2.7719778625       -0.5197802327
 C         -0.0014285533       -2.4598824234        0.7641115695
 C         -0.1132468909       -3.2693085081        1.8865888758
 C          0.4922720410       -2.9000214018        3.0758298921
 C          1.1894340722       -1.7100410438        3.1731766295
 C          1.3118694286       -0.8940858585        2.0514479655
 C          0.7494249141       -1.2953968956        0.8510841910
 H          0.8459833293       -0.6647637410       -0.0161836004
 N          2.0028159175        0.3199874765        2.1235617276
 S          1.6956130220        1.6357506413        1.1292031287
 O          1.9913412691        2.7804962936        1.9671710210
 O          0.3731398381        1.5959325983        0.5556855320
 C          2.9718476604        1.5056290023       -0.1061845124
 C          2.7080548208        1.0235921379       -1.3712860391
 C          3.7530455130        0.9238435747       -2.2786613910
 C          5.0334344674        1.3040698982       -1.9109796008
 C          5.2819500874        1.7900671272       -0.6355686393
 C          4.2442102243        1.8913135262        0.2748048389
 H          4.3883554821        2.2768725473        1.2704614215
 H          6.2778445560        2.0889527923       -0.3506677258
 H          5.8398029686        1.2230157338       -2.6227666395
 H          3.5494127061        0.5440342137       -3.2671353971
 H          1.7084513835        0.7254008379       -1.6489671948
 H          2.2703235557        0.6072417842        3.0527066148
 H          1.6283689625       -1.4054757320        4.1110083252
 H          0.3979172729       -3.5334683136        3.9448974817
 H         -0.7007206548       -4.1739886412        1.8331743389
 H         -1.5247641943       -3.4978776963       -0.2767636218
 C          0.1516822255       -3.3985868538       -1.5846482591
 C          1.6456497019       -3.3164657890       -1.5623871427
 C          0.9658301316       -4.6150150084       -1.2547302561
 H          1.0188842009       -5.4131864316       -1.9793325961
 H          0.9676171116       -4.9473075719       -0.2275589500
 H          2.1517305313       -3.2027579632       -2.5084280417
 H          2.1150891912       -2.7797375346       -0.7525965973
 H         -0.3151540017       -3.3734916276       -2.5634926266
