  62
        -98.94398127
 C         -1.3875531969       -1.5710911133       -0.6091050348
 C         -2.6177668309       -1.5462987515        0.0964612059
 C         -3.6006549937       -0.5428656609       -0.3278440118
 C         -3.2958959738        0.2806561463       -1.3469040946
 C         -4.1728565479        1.3922227180       -1.8446536782
 C         -3.8501599699        2.7110277170       -1.1287913825
 C         -3.7960556687        2.5915078641        0.3944554995
 H         -2.9399490255        1.9702840369        0.6706054318
 H         -3.5990540756        3.5905743148        0.7902284037
 C         -5.0715651338        2.0267868847        1.0359817516
 H         -5.3196961941        2.6335238694        1.9093850129
 H         -5.9043557262        2.1092811052        0.3365086630
 C         -4.9547840622        0.5794162716        1.5177785531
 H         -5.8215445089        0.3595633350        2.1468949940
 H         -4.0622108208        0.4729634861        2.1399626706
 C         -4.9041910714       -0.4878718661        0.4174577640
 H         -5.0161688297       -1.4648273046        0.8969002382
 H         -5.7379051841       -0.3450134725       -0.2730455005
 H         -4.6006948040        3.4515972507       -1.4122452415
 H         -2.8743776951        3.0636234728       -1.4722870775
 H         -5.2160031318        1.1253278385       -1.6857078865
 H         -3.9969029032        1.5179316785       -2.9144544187
 O         -2.1205372972        0.2162554132       -2.0168381270
 C         -1.1217488885       -0.6807548577       -1.6509804836
 O         -0.0916866270       -0.5798412225       -2.3416168705
 O         -2.8809924924       -2.3392057018        1.0416529618
 C         -0.3576360107       -2.5734138379       -0.1199560430
 C          0.4479717892       -1.9953792384        1.0188127499
 C          0.8139856541       -2.7780931804        2.1080532432
 C          1.5495025844       -2.2340060143        3.1462256954
 C          1.9224976914       -0.9025420813        3.1247659019
 C          1.5439592484       -0.1044732410        2.0490951176
 C          0.8256388122       -0.6608051540        1.0007791239
 H          0.5288220581       -0.0338375460        0.1765840811
 N          1.8524900692        1.2579310514        2.0382423329
 S          1.9111313925        2.2104642666        0.6714008686
 O          2.4179601743        3.4734539588        1.1668509435
 O          0.6229364968        2.2554019106        0.0281471052
 C          3.1531155096        1.4675823740       -0.3698820787
 C          2.8145630702        0.7664657055       -1.5081376561
 C          3.8312766635        0.2092389887       -2.2709835415
 C          5.1535191139        0.3527195851       -1.8842029369
 C          5.4760121299        1.0598732231       -0.7348901114
 C          4.4685093235        1.6238137950        0.0282772692
 H          4.6763210392        2.1999571970        0.9151925520
 H          6.5053809680        1.1733384916       -0.4352953645
 H          5.9359820224       -0.0861357248       -2.4829292395
 H          3.5724351494       -0.3374102648       -3.1635056212
 H          1.7797624208        0.6488515663       -1.7914735770
 H          2.4645933844        1.5808355953        2.7709346043
 H          2.4831054540       -0.4745071035        3.9413094302
 H          1.8292858790       -2.8511774522        3.9863291551
 H          0.4990344922       -3.8102637647        2.1496620547
 H         -0.9474658892       -3.4081305900        0.2932039744
 C          0.5192722473       -3.1386191843       -1.2277347778
 C          1.9553407783       -2.7587510572       -1.4065397024
 C          1.6025449651       -4.1284625290       -0.9151275798
 H          1.7371357104       -4.9675210137       -1.5806624238
 H          1.7962946746       -4.3506357150        0.1225961991
 H          2.3187870350       -2.6426379129       -2.4152980272
 H          2.3845561792       -2.0563656225       -0.7084565864
 H         -0.0471198598       -3.3109797406       -2.1370657640
