  62
        -98.94378381
 C         -1.4618858128       -0.9153607376       -0.4631433507
 C         -2.5379992212       -1.1039704942        0.4414303891
 C         -3.4462296745        0.0328468085        0.6313764579
 C         -3.1964232250        1.1839881462       -0.0183855490
 C         -4.0585209963        2.4109296561        0.0471368929
 C         -5.1212063883        2.4058231864       -1.0607104177
 C         -5.9005023476        1.0945026354       -1.1620293692
 H         -6.6401310447        1.2164121778       -1.9562342000
 H         -5.2196537937        0.2996453018       -1.4747969492
 C         -6.6065019365        0.6739776071        0.1345191662
 H         -6.6913800353        1.5303316563        0.8044433598
 H         -7.6207167279        0.3499718727       -0.1081373769
 C         -5.9344523821       -0.4833695195        0.8757098394
 H         -5.7620979971       -1.3111669227        0.1833467866
 H         -6.6233199919       -0.8391874654        1.6464374102
 C         -4.6065516345       -0.1517642035        1.5685835735
 H         -4.7314878858        0.7279156295        2.2038164099
 H         -4.3425411399       -1.0006192658        2.2063512044
 H         -5.8132905655        3.2299690554       -0.8783722647
 H         -4.6241417080        2.5844456599       -2.0170014871
 H         -4.5360214433        2.4592421006        1.0241106542
 H         -3.4178031778        3.2861647549       -0.0756374704
 O         -2.1436028381        1.3416591369       -0.8561342097
 C         -1.2444953069        0.3080733978       -1.0995787270
 O         -0.3384700789        0.6189216774       -1.8935405930
 H          0.8223217096        0.0203297894        0.3731705790
 C          1.1514225978       -0.9122038515        0.8006670163
 C          0.5575837191       -2.1003485385        0.4004465176
 C          0.9763865203       -3.2883633481        0.9891605241
 C          1.9739390231       -3.2824934492        1.9478494763
 C          2.5635100778       -2.0960848652        2.3439095513
 C          2.1383049480       -0.8987131325        1.7758978374
 N          2.6781674638        0.3150929346        2.2082406141
 S          2.6702960925        1.7293010763        1.3266939660
 O          3.4873176475        2.6220431103        2.1224710375
 O          1.3198395020        2.1647484089        1.0758825618
 C          3.5416078705        1.3535207454       -0.1827987020
 C          2.8780273844        1.2330477790       -1.3856518283
 C          3.6162950155        0.9391765578       -2.5235441531
 C          4.9875794236        0.7626117966       -2.4402983889
 C          5.6383574550        0.8842646811       -1.2210811836
 C          4.9107659753        1.1846015194       -0.0826603352
 H          5.3797969201        1.3115005580        0.8794336549
 H          6.7058967387        0.7486747773       -1.1567295581
 H          5.5515728097        0.5312487826       -3.3301112443
 H          3.1039662255        0.8479373599       -3.4677716674
 H          1.8068142713        1.3558293299       -1.4330116567
 H          3.4573239741        0.2526318065        2.8445841632
 H          3.3320506783       -2.0891673147        3.1012270377
 H          2.2919825772       -4.2108202377        2.3972499315
 H          0.4999514138       -4.2160465616        0.7085521393
 C         -0.5284144182       -2.0979686722       -0.6480431559
 H         -1.1560552825       -2.9850927208       -0.4624104323
 C          0.0253437921       -2.2196619197       -2.0606640834
 C          1.4474088526       -1.9140014467       -2.4108914218
 C          0.9666529293       -3.3320113568       -2.4179162368
 H          0.8356456441       -3.8295049890       -3.3668280329
 H          1.3063600916       -3.9769464432       -1.6226051351
 H          1.6342986659       -1.4209786651       -3.3517222071
 H          2.1083334216       -1.5984104986       -1.6182368865
 H         -0.7181953840       -1.9558555008       -2.8057759251
 O         -2.7320956641       -2.1874290759        1.0577262275
