  62
        -98.94528365
 C          2.2602865976        0.6323372798       -0.1735589385
 C          1.3827747845        0.9645413474        0.8817584611
 C          0.6196111426        2.2180024553        0.7396913283
 C          0.7581744886        2.9329804060       -0.3918176008
 C          0.0152099485        4.1880218689       -0.7574269219
 C         -1.4223298293        3.9043325863       -1.2405514097
 C         -2.1342911092        2.7426158063       -0.5461557692
 H         -3.0412880088        2.5209727108       -1.1169042012
 H         -1.5080297954        1.8504111219       -0.6116610138
 C         -2.5454762087        2.9929076060        0.9037289920
 H         -3.3436134284        3.7395486442        0.9165834375
 H         -2.9547070420        2.0584830564        1.2963187372
 C         -1.4384354395        3.4781897955        1.8368498821
 H         -1.1390346888        4.4866251325        1.5635857606
 H         -1.8639270003        3.5393281702        2.8428697758
 C         -0.2201846514        2.5635424167        1.9447348434
 H          0.4652537180        2.9959766670        2.6848005577
 H         -0.5370691478        1.6008635493        2.3569206645
 H         -1.3727437656        3.6561166575       -2.3033996706
 H         -2.0138674812        4.8151090547       -1.1328366930
 H          0.0205090577        4.8690982636        0.0896613817
 H          0.5677455151        4.6626835432       -1.5710150210
 O          1.5907258334        2.5584506642       -1.4028898859
 C          2.3579281610        1.4123965808       -1.3239202307
 O          3.0800967420        1.1985554229       -2.3206249825
 H          0.8541070666       -1.0540648883       -1.5158003467
 C          0.9865871061       -1.8389384584       -0.7857631166
 C          2.1013050082       -1.8181447515        0.0429609894
 C          2.2659026916       -2.8488608606        0.9590507208
 C          1.3148964677       -3.8501781783        1.0605137953
 C          0.1785238259       -3.8352788303        0.2722142382
 C          0.0119293735       -2.8153428878       -0.6586434658
 N         -1.1261440944       -2.7612626950       -1.4852923663
 S         -2.0379658788       -1.3635333658       -1.5966261528
 O         -3.1024664597       -1.6953762172       -2.5188764839
 O         -1.2003143662       -0.2507816260       -1.9617699603
 C         -2.7393889367       -1.1148613344        0.0260869212
 C         -1.9088538106       -0.8090910377        1.0856562362
 C         -2.4652758143       -0.6551272945        2.3464484039
 C         -3.8321947966       -0.7990039790        2.5262486082
 C         -4.6530580278       -1.1022092759        1.4505186292
 C         -4.1027890670       -1.2681557986        0.1899631110
 H         -4.6994775771       -1.5085019254       -0.6749524760
 H         -5.7164224294       -1.2119312264        1.5899187035
 H         -4.2573399295       -0.6723806506        3.5093537221
 H         -1.8171149863       -0.4235268108        3.1770987814
 H         -0.8482981568       -0.6894652378        0.9286356374
 H         -1.7385334249       -3.5601164571       -1.3973644943
 H         -0.5736807410       -4.6029539621        0.3726272158
 H          1.4518997807       -4.6442358531        1.7786239196
 H          3.1321331165       -2.8633250653        1.5999069445
 C          3.0578346635       -0.6589101237       -0.1072608442
 H          3.5663005342       -0.7536835176       -1.0781770630
 C          4.0994418311       -0.5857426561        0.9893745791
 C          5.3760963404       -1.3611995676        0.8713095632
 C          5.3872020463        0.1291446386        0.7159488338
 H          5.8216675285        0.7287251983        1.5016500273
 H          5.5225312747        0.5426357661       -0.2732694992
 H          5.8082861940       -1.7835951840        1.7658669505
 H          5.5162795576       -1.9625044394       -0.0143040206
 H          3.6596037444       -0.4655100381        1.9725898618
 O          1.2300705994        0.2385102167        1.9010101288
