  62
        -98.94392039
 C          1.7874059376        0.6302816383        0.5499391955
 C          3.0625706269        0.6240790432        1.1638607105
 C          4.2108443484        0.5447758296        0.2543184346
 C          4.0072456242        0.5037071964       -1.0752209390
 C          5.0765766981        0.4434143409       -2.1321496997
 C          5.5979683309       -0.9724693255       -2.4137932527
 C          6.4880984211       -1.5681012557       -1.3221838211
 H          6.9558544863       -2.4608895187       -1.7420970145
 H          7.2866015226       -0.8653753360       -1.0819496791
 C          5.7412422013       -1.9599617758       -0.0395150644
 H          4.6703195033       -2.0222405702       -0.2470099241
 H          6.0624239139       -2.9539848125        0.2800789682
 C          5.9634542914       -1.0115433010        1.1387407094
 H          7.0123852966       -1.0433809576        1.4416834241
 H          5.3598118629       -1.3623237399        1.9799098863
 C          5.5802105039        0.4468871063        0.8558120914
 H          5.5658010532        0.9875152670        1.8054677408
 H          6.3185238324        0.9096266175        0.2012448924
 H          6.1764832578       -0.9283236675       -3.3394653574
 H          4.7441435125       -1.6316447481       -2.5876181779
 H          5.9087439051        1.0888545287       -1.8495572976
 H          4.6295129998        0.8334674220       -3.0490867546
 O          2.7657518352        0.5337116808       -1.6274923890
 C          1.6262988143        0.5815349794       -0.8351523669
 O          0.5589293700        0.5800630937       -1.4742208219
 O          3.2313697790        0.6824304802        2.4119357133
 C          0.5560790385        0.7065837286        1.4304614444
 C         -0.3622174945       -0.4723588271        1.2185370729
 C          0.1561798836       -1.7198815386        0.8850585798
 C         -0.6759138607       -2.8018209078        0.6659020553
 C         -2.0478867340       -2.6709097537        0.7914889433
 C         -2.5745602009       -1.4404481896        1.1541221753
 C         -1.7372420272       -0.3523098158        1.3661728560
 H         -2.1676530940        0.5988299935        1.6405270099
 N         -3.9780798429       -1.3106657106        1.2793926835
 S         -4.8188674063       -1.2306159038       -0.1701574170
 O         -6.2152469284       -1.1218554846        0.1859495761
 O         -4.4465665597       -2.3597485616       -0.9814776800
 C         -4.2625723166        0.2959848074       -0.9050407039
 C         -3.0107401260        0.3361128954       -1.4853256701
 C         -2.5262731415        1.5480375883       -1.9523149997
 C         -3.3022899931        2.6910975558       -1.8368299171
 C         -4.5627251277        2.6329631358       -1.2597496311
 C         -5.0456588304        1.4272450456       -0.7784037473
 H         -6.0145768636        1.3371531985       -0.3140278129
 H         -5.1634572195        3.5244745679       -1.1757849799
 H         -2.9193937098        3.6331677380       -2.1974916233
 H         -1.5336676420        1.5812115914       -2.3733940542
 H         -2.4219274694       -0.5633441885       -1.5648321631
 H         -4.2536638377       -0.5257380668        1.8546571967
 H         -2.7144163325       -3.4958796084        0.6010365515
 H         -0.2523721668       -3.7568908912        0.3932707081
 H          1.2272000960       -1.8321416130        0.7850673524
 H          0.9357159450        0.6632876611        2.4630947777
 C         -0.1466739090        2.0352866880        1.2252202333
 C         -0.8047513939        2.7410358509        2.3724151417
 C          0.4714981155        3.2746564704        1.7966298374
 H          0.4389194536        4.1836121149        1.2153495890
 H          1.3804355198        3.1545753275        2.3681605583
 H         -1.7165219080        3.2887611609        2.1858154966
 H         -0.7597940088        2.2723333450        3.3441784990
 H         -0.6077420803        2.1111861045        0.2466463004
