  62
        -98.94497523
 C         -1.6486522803       -1.2489493696       -0.4015558404
 C         -2.9885668205       -1.3553063892        0.0416101493
 C         -3.8486667802       -0.2019428691       -0.2455087112
 C         -3.3382250898        0.8699585006       -0.8790868514
 C         -4.0914993595        2.1200210206       -1.2464165920
 C         -4.2098793696        3.1393544210       -0.1048290523
 C         -5.1819160499        2.7583440515        1.0126477775
 H         -5.3347084999        3.6509809317        1.6226456472
 H         -6.1468576699        2.4923901516        0.5797838574
 C         -4.6910054204        1.6208898817        1.9191975680
 H         -4.8585401806        1.8898066921        2.9646596279
 H         -3.6138807404        1.4909667615        1.7908945483
 C         -5.3820154505        0.2784645618        1.6808775883
 H         -4.9320528308       -0.4626632581        2.3464374986
 H         -6.4409694906        0.3598596720        1.9364273480
 C         -5.2654181503       -0.2430478587        0.2429617884
 H         -5.5907069305       -1.2863794686        0.2301945487
 H         -5.9127215900        0.3319860212       -0.4189456819
 H         -4.5479272793        4.0810176509       -0.5435032727
 H         -3.2175107097        3.3071103110        0.3192949378
 H         -3.5408801892        2.5846791003       -2.0668968820
 H         -5.0874797795        1.8560248507       -1.6034310022
 O         -2.0443269697        0.9318702202       -1.2909677812
 C         -1.1666825000       -0.1206669699       -1.0670897106
 O         -0.0185931898        0.0669945898       -1.5076791804
 H          1.9693909396       -2.0657800103       -0.7844398593
 C          1.7370054094       -1.7359742600        0.2155840706
 C          0.4484708693       -1.8659358896        0.7067688703
 C          0.1810704191       -1.4189672992        1.9984727801
 C          1.1759575190       -0.8543077291        2.7730199802
 C          2.4596353391       -0.7138557395        2.2733573804
 C          2.7345967294       -1.1518638399        0.9856835606
 N          4.0347479095       -0.9988842703        0.4616821909
 S          4.6607367998        0.5546918795        0.4033816805
 O          5.8073811500        0.4653030990       -0.4725876192
 O          4.9236963196        1.0050637699        1.7472728505
 C          3.3875814402        1.5528381395       -0.3432287001
 C          3.3352981305        1.6331791791       -1.7199128201
 C          2.3124903308        2.3548784591       -2.3107792406
 C          1.3568917407        2.9706288595       -1.5188873010
 C          1.4231596804        2.8795767400       -0.1382781809
 C          2.4464678001        2.1632486499        0.4598302295
 H          2.5302198598        2.0709769203        1.5305101696
 H          0.6742346803        3.3557244803        0.4748209287
 H          0.5504126009        3.5180466196       -1.9808679113
 H          2.2542188910        2.4242947988       -3.3851699706
 H          4.0981972005        1.1394980288       -2.3009086698
 H          4.1450723896       -1.4318211506       -0.4447866890
 H          3.2455131391       -0.2591325895        2.8545444605
 H          0.9522122488       -0.5150822388        3.7733492600
 H         -0.8256323310       -1.5119597589        2.3828634699
 C         -0.6918195006       -2.3959853596       -0.1245329198
 H         -1.2610530109       -3.1155719394        0.4802238403
 C         -0.2654181904       -3.0692641201       -1.4112728095
 C          0.2979336893       -4.4577367102       -1.3748265589
 C         -1.0717913805       -4.2185610101       -1.9336842493
 H         -1.2167296103       -4.3033052904       -3.0002957594
 H         -1.9260994407       -4.5321794698       -1.3520056994
 H          0.3762631290       -4.9384044599       -0.4114627988
 H          1.0935072494       -4.7119113206       -2.0588752087
 H          0.1340868299       -2.3733122504       -2.1402798696
 O         -3.4432827508       -2.3643936989        0.6441801095
