  62
        -98.94476959
 C         -1.9158799889       -1.0068928420       -0.2755360165
 C         -3.0470934919       -1.1981517098        0.5604034472
 C         -4.3117768546       -0.6222423825        0.0881603664
 C         -4.3344477534        0.0380438603       -1.0837943078
 C         -5.5395189140        0.7213582533       -1.6606280691
 C         -5.6126398519        2.1891180730       -1.2169255625
 C         -5.4373485525        2.3890913089        0.2885666101
 H         -4.4201748653        2.1063694108        0.5701776963
 H         -5.5389829833        3.4581000448        0.4881325528
 C         -6.4380725600        1.6100439921        1.1536305972
 H         -7.2917889839        1.3039825220        0.5478568922
 H         -6.8161288528        2.2736653289        1.9341723019
 C         -5.8500522623        0.3851194816        1.8566189028
 H         -4.9388284543        0.6707899663        2.3882313357
 H         -6.5713583875        0.0435221571        2.6037488983
 C         -5.5261922869       -0.8111812791        0.9528648684
 H         -5.3040598293       -1.6652318020        1.5992644001
 H         -6.3980054202       -1.0588161322        0.3439238095
 H         -4.8247694290        2.7459541000       -1.7296434315
 H         -6.5754365185        2.5968939130       -1.5303947128
 H         -6.4362316465        0.1909589628       -1.3460488160
 H         -5.4686697395        0.6832534554       -2.7489905782
 O         -3.2351903257        0.1962357896       -1.8614586610
 C         -1.9990756733       -0.3064503930       -1.4788440925
 O         -1.0897829869       -0.0671763387       -2.2975447185
 O         -2.9994765899       -1.8283367947        1.6499400044
 C         -0.5925074774       -1.5800643099        0.2056197245
 C          0.2876965426       -0.4609158859        0.7054858005
 C          0.3059757618       -0.1390854719        2.0586237547
 C          1.0992944375        0.8917084557        2.5302286630
 C          1.8871655762        1.6259724707        1.6613940419
 C          1.8655092221        1.3193811020        0.3073406562
 C          1.0806525657        0.2760653122       -0.1623590944
 H          1.0571956968        0.0590771066       -1.2189745036
 N          2.6690855726        2.0632327636       -0.5847637591
 S          4.3212520911        1.9387085795       -0.3292811435
 O          4.6712890072        2.6841797777        0.8532324936
 O          4.9446883632        2.3657422057       -1.5612179893
 C          4.5918318980        0.1974043081       -0.0580341787
 C          4.6021713847       -0.2964871751        1.2307291619
 C          4.7203932972       -1.6638409151        1.4213069720
 C          4.8247545657       -2.5082436323        0.3271457187
 C          4.8172367524       -1.9954275377       -0.9610520178
 C          4.6922424376       -0.6301397643       -1.1585274965
 H          4.6845160409       -0.1918049311       -2.1438516123
 H          4.9043519587       -2.6539024988       -1.8106528755
 H          4.9128789231       -3.5725902764        0.4782649981
 H          4.7269875528       -2.0653915569        2.4217753757
 H          4.5238024506        0.3937895187        2.0542599934
 H          2.4578614187        1.8648563434       -1.5529287166
 H          2.5193297608        2.4274246526        2.0085657555
 H          1.1044266311        1.1268641164        3.5837226083
 H         -0.3183937456       -0.7017463115        2.7379926367
 H         -0.8526911266       -2.2103579634        1.0662825841
 C          0.0977358216       -2.4402604213       -0.8338492843
 C          1.2584458815       -3.2893340584       -0.4121758366
 C         -0.0480654957       -3.9297727476       -0.7703033377
 H         -0.1181428442       -4.4788773054       -1.6973382605
 H         -0.6522205797       -4.3403557109        0.0253467499
 H          2.0900742294       -3.3976588723       -1.0906674132
 H          1.5424982015       -3.2590876500        0.6287153979
 H          0.1321618878       -1.9901105320       -1.8175123445
