  62
        -98.94066465
 C         -2.3200960946       -1.0387073827       -0.0380424780
 C         -2.0626708479        0.2419516880       -0.5847729764
 C         -2.7678572685        1.3665684260        0.0493218019
 C         -3.5585645432        1.1424635622        1.1135401231
 C         -4.3656254777        2.1893916048        1.8235858190
 C         -5.7733698745        2.3092803833        1.2227164842
 C         -5.7867302735        2.4318473224       -0.3009861536
 H         -5.4186542404        1.5000335672       -0.7362621319
 H         -6.8287578022        2.5412359245       -0.6089191696
 C         -4.9650180713        3.6061958054       -0.8504513965
 H         -5.5506580222        4.1138238698       -1.6197192542
 H         -4.7762569130        4.3297773512       -0.0566368644
 C         -3.6370940364        3.2042023175       -1.4947452857
 H         -3.2457514782        4.0700856050       -2.0353572609
 H         -3.8103950488        2.4115729610       -2.2268723003
 C         -2.5417473084        2.7358992454       -0.5282222710
 H         -2.4119782441        3.4714714975        0.2684031635
 H         -1.6049632993        2.6732425536       -1.0897093138
 H         -6.2633520832        3.1788487553        1.6644065477
 H         -6.3440845045        1.4199966788        1.4998858675
 H         -4.4504307402        1.9029173541        2.8732719372
 H         -3.8480371979        3.1446636582        1.7597848607
 O         -3.7494029759       -0.0935458858        1.6400577145
 C         -3.1486469582       -1.2047011223        1.0772825840
 O         -3.4274151900       -2.2777517736        1.6489513580
 O         -1.2898251304        0.4650230841       -1.5560909535
 C         -1.6977370171       -2.3209421242       -0.5741152325
 C         -0.2876187445       -2.4706229259       -0.0542796605
 C          0.0388207192       -3.4785777647        0.8450866515
 C          1.3241312242       -3.5856850117        1.3476018953
 C          2.3083994652       -2.6904186694        0.9677929972
 C          1.9878459365       -1.6742511931        0.0776735416
 C          0.7031668826       -1.5769035490       -0.4350133334
 H          0.4568432481       -0.7746199863       -1.1150805011
 N          2.9795523946       -0.7396777310       -0.3106158200
 S          3.5170331059        0.2869083110        0.9219156137
 O          4.0568541227       -0.5183025185        1.9874271771
 O          2.4711682479        1.2177032543        1.2943411422
 C          4.8342617191        1.1441340288        0.0824258707
 C          6.0566890625        0.5125830350       -0.0425647547
 C          7.0768688613        1.1576284684       -0.7229437376
 C          6.8581586107        2.4153407790       -1.2654131123
 C          5.6257055354        3.0363921020       -1.1314870521
 C          4.6005634100        2.3957350950       -0.4530272967
 H          3.6286056152        2.8435201015       -0.3186081926
 H          5.4584505300        4.0148072437       -1.5524826680
 H          7.6535228697        2.9161377109       -1.7944877175
 H          8.0370913610        0.6790601296       -0.8283144737
 H          6.1821068183       -0.4606490124        0.4018326517
 H          2.6285293238       -0.1496615682       -1.0562055738
 H          3.3060600778       -2.7503968093        1.3699212059
 H          1.5618442405       -4.3735984623        2.0463965274
 H         -0.7295873526       -4.1674068537        1.1657833075
 H         -2.2966071355       -3.1384050437       -0.1509106062
 C         -1.7478194977       -2.4238099411       -2.0859535277
 C         -1.6174656237       -3.7724635270       -2.7246432514
 C         -2.9363201832       -3.0607658239       -2.7379176793
 H         -3.2938747951       -2.6495186066       -3.6699755613
 H         -3.7219056614       -3.4294890243       -2.0941587041
 H         -1.0668961351       -3.8526242067       -3.6492130146
 H         -1.5089378062       -4.6256221288       -2.0721654061
 H         -1.2983935900       -1.5802156828       -2.5921645917
