  62
        -98.94343039
 C         -1.9641991115       -0.8548559290        0.0153586801
 C         -2.2526957699        0.0957146222        1.0215117415
 C         -2.4616281164        1.4719978800        0.5618790559
 C         -2.3294505871        1.7655125191       -0.7446266728
 C         -2.4678920868        3.1305693967       -1.3629880577
 C         -3.9156702883        3.5385862931       -1.6690000095
 C         -4.7666832660        3.8841065984       -0.4463816179
 H         -4.2410487472        4.6193160140        0.1636344392
 H         -5.6791352193        4.3571180771       -0.8146041161
 C         -5.1515622134        2.6758007463        0.4185719578
 H         -4.9990977938        1.7564949047       -0.1514268414
 H         -6.2140828733        2.7279110199        0.6661473003
 C         -4.3842465032        2.5703389894        1.7365472722
 H         -4.7082465768        1.6620872327        2.2510554645
 H         -4.6280746766        3.4236566159        2.3731944508
 C         -2.8597048428        2.5028394285        1.5748060325
 H         -2.4648497578        3.4802891650        1.2971534467
 H         -2.4222150416        2.2105725708        2.5330727121
 H         -4.3933038571        2.7320764329       -2.2298769382
 H         -3.8752518893        4.4169281412       -2.3172546285
 H         -1.9098566320        3.1008276502       -2.3013608651
 H         -2.0060140925        3.8729514998       -0.7111355859
 O         -2.0272758443        0.8268140268       -1.6802460842
 C         -1.8380817628       -0.5006308448       -1.3278505415
 O         -1.5723172790       -1.2527403495       -2.2855343060
 O         -2.3274152612       -0.1933275595        2.2484436570
 C         -1.7030875383       -2.2939313699        0.4135912080
 C         -0.3070158823       -2.7140748642        0.0188947292
 C          0.0083650715       -4.0126067813       -0.3614256583
 C          1.3102456545       -4.3482081871       -0.6919467818
 C          2.3184365612       -3.4035750331       -0.6582985741
 C          2.0119070811       -2.0983669288       -0.2847802745
 C          0.7137027488       -1.7734529717        0.0693350746
 H          0.4917020149       -0.7617204856        0.3767964962
 N          3.0039418940       -1.1048502561       -0.3025319139
 S          2.7704979881        0.3843278560        0.4377928962
 O          2.5037814699        0.2168838600        1.8507442690
 O          1.8003698651        1.1399896331       -0.3154209953
 C          4.3927421196        1.0868235809        0.2058341585
 C          5.3073326017        1.0535032831        1.2413669264
 C          6.5731856762        1.5797402257        1.0355015641
 C          6.9020359308        2.1250903919       -0.1962598767
 C          5.9731068532        2.1526940922       -1.2261167890
 C          4.7057196822        1.6291575043       -1.0263646091
 H          3.9471420463        1.6361280089       -1.7919685261
 H          6.2305814321        2.5801534016       -2.1817411488
 H          7.8872791249        2.5343070006       -0.3542864644
 H          7.2959829280        1.5628157208        1.8351161600
 H          5.0029161940        0.6280937374        2.1840556772
 H          3.9424406893       -1.4584302266       -0.1842961798
 H          3.3300061264       -3.6643497162       -0.9280711889
 H          1.5418837948       -5.3613761151       -0.9834897049
 H         -0.7661551396       -4.7611290314       -0.4006315407
 H         -1.7634369651       -2.3081410869        1.5134884699
 C         -2.7781325380       -3.2047506130       -0.1454194997
 C         -3.2372670929       -4.4065090854        0.6236332971
 C         -4.1287861890       -3.2084880201        0.5039028182
 H         -5.0038966268       -3.2725930570       -0.1250652751
 H         -4.2597385856       -2.5779250376        1.3715257726
 H         -3.5043165484       -5.2973502788        0.0753190885
 H         -2.7739426679       -4.5959486668        1.5802262394
 H         -2.7418932272       -3.2684491145       -1.2272306673
