  62
        -98.95045072
 C         -1.7422794800       -1.3084072071       -0.2390565378
 C         -2.8607713741       -0.7013853110        0.3761672205
 C         -3.3036563991        0.5707686245       -0.2074503547
 C         -2.6430114417        1.0754509999       -1.2657095702
 C         -2.9668544828        2.3787391724       -1.9362114715
 C         -2.1556165073        3.5342129396       -1.3352260684
 C         -2.2046354336        3.5988360820        0.1913131868
 H         -1.6712434921        2.7353887788        0.5969990836
 H         -1.6377709942        4.4823235246        0.4952477959
 C         -3.6188216604        3.6690675418        0.7842952111
 H         -3.6260980652        4.4229798915        1.5744801830
 H         -4.3249077097        3.9942979250        0.0189693483
 C         -4.1148963098        2.3647317075        1.4112071556
 H         -3.3552214143        1.9804452793        2.0972839416
 H         -5.0073277581        2.5892367396        2.0019663266
 C         -4.4854549742        1.2482930478        0.4268575875
 H         -5.0107786707        0.4701550190        0.9887383642
 H         -5.1630361522        1.6392056079       -0.3350304033
 H         -2.5262640286        4.4716508740       -1.7553841209
 H         -1.1096655650        3.4149439700       -1.6280603569
 H         -2.7215500014        2.2889556925       -2.9960822311
 H         -4.0321338771        2.5783414000       -1.8350927969
 O         -1.5775274225        0.4601190061       -1.8356965651
 C         -1.0806267972       -0.7237057311       -1.3179301002
 O         -0.0711595405       -1.1595761317       -1.9059380319
 H         -0.1101700066       -0.4633310287        1.4999623758
 C          0.6290670929       -1.2297373395        1.3178371154
 C          0.2526643645       -2.4256735487        0.7202932263
 C          1.2266414424       -3.3951583194        0.5145119428
 C          2.5429795361       -3.1562365229        0.8711121348
 C          2.9211444344       -1.9414152857        1.4130991978
 C          1.9519475503       -0.9699216035        1.6320806259
 N          2.2782456996        0.3053652518        2.1439578010
 S          2.0609912015        1.5834071967        1.0751147197
 O          2.5269014497        2.7549018729        1.7869374607
 O          0.6974802239        1.6144800752        0.6181320681
 C          3.1917275057        1.2122878003       -0.2539340906
 C          4.4574975858        1.7661066366       -0.2076911312
 C          5.3803235022        1.4175191064       -1.1797423501
 C          5.0269643849        0.5137727674       -2.1709530223
 C          3.7546093400       -0.0350649683       -2.2003513760
 C          2.8224851044        0.3124595845       -1.2334024892
 H          1.8253975524       -0.1010949322       -1.2451949364
 H          3.4710386387       -0.7378596031       -2.9673531250
 H          5.7457704510        0.2358997805       -2.9256619083
 H          6.3693351889        1.8462038640       -1.1595250217
 H          4.6844225841        2.4649294061        0.5814673253
 H          3.2121801951        0.3590013290        2.5287823806
 H          3.9527528998       -1.7423939915        1.6619123730
 H          3.2878493516       -3.9190924607        0.7041212107
 H          0.9555936542       -4.3374425885        0.0670240732
 C         -1.1939215311       -2.6043007499        0.3296736685
 H         -1.7799443864       -2.7971915709        1.2412008873
 C         -1.4145985550       -3.7449788238       -0.6429500592
 C         -1.6467394729       -5.1383035455       -0.1413259275
 C         -2.7781571926       -4.3587544513       -0.7387014622
 H         -3.1482974396       -4.6441602858       -1.7119135138
 H         -3.5407767998       -3.9716606473       -0.0786711069
 H         -1.2423249924       -5.9640953400       -0.7070393456
 H         -1.6485830502       -5.2918450243        0.9272179470
 H         -0.8581429209       -3.6159188234       -1.5646465077
 O         -3.4606127615       -1.2016812413        1.3677842927
