  62
        -98.94130675
 C         -2.4808489325       -1.3215250822        0.0434860034
 C         -3.0931877103       -0.5511435589        1.0666784777
 C         -3.8620367641        0.6224149346        0.6356507297
 C         -3.9516770322        0.8996980494       -0.6773751917
 C         -4.6630758325        2.0860435103       -1.2591785878
 C         -3.7134824047        3.2810454081       -1.4217120824
 C         -2.8932619337        3.5952769167       -0.1701908812
 H         -2.1954178736        2.7749251512        0.0176048121
 H         -2.2883417037        4.4776414192       -0.3914925654
 C         -3.7305806190        3.8511424171        1.0909785862
 H         -4.7597332741        4.0798990853        0.8117114508
 H         -3.3297462826        4.7286525227        1.6024636024
 C         -3.7217074989        2.7035329982        2.1026702504
 H         -2.6898543442        2.4045284668        2.3055505264
 H         -4.1463018511        3.0735069943        3.0396550583
 C         -4.5165551602        1.4542818085        1.7020436857
 H         -4.5880348080        0.8092261920        2.5825426451
 H         -5.5263543209        1.7411479118        1.4017646972
 H         -4.3042206555        4.1557917381       -1.7000062647
 H         -3.0193463250        3.0658514196       -2.2377746039
 H         -5.0519055761        1.8070165581       -2.2400120405
 H         -5.4951346365        2.3558850776       -0.6117249155
 O         -3.3585484334        0.1397863424       -1.6308703657
 C         -2.5918685740       -0.9726118556       -1.3024109161
 O         -2.0887369323       -1.5357825404       -2.2937676840
 H         -0.0374369354       -1.3500164430       -1.2940919675
 C          0.4639807315       -1.5293045307       -0.3535720556
 C         -0.2288985335       -2.1482016623        0.6787638032
 C          0.4289204265       -2.3636646586        1.8833917351
 C          1.7456966538       -1.9685256955        2.0474266527
 C          2.4301628743       -1.3495338589        1.0167567905
 C          1.7797790980       -1.1270104855       -0.1899833972
 N          2.4664966052       -0.4755654261       -1.2398065916
 S          2.8381183916        1.1394865614       -0.9301754094
 O          1.8753628527        1.7348611025       -0.0301204996
 O          2.9772615550        1.7627706307       -2.2282395237
 C          4.4355191391        1.0535813307       -0.1495619275
 C          4.5955986491        1.5046929668        1.1457784409
 C          5.8487626067        1.4220945784        1.7330735766
 C          6.9124696055        0.8923805786        1.0185841766
 C          6.7351019084        0.4458749245       -0.2827406226
 C          5.4856077322        0.5268557286       -0.8762793484
 H          5.3038361838        0.1973159546       -1.8855916194
 H          7.5647255493        0.0350113041       -0.8350769686
 H          7.8857811715        0.8274934450        1.4787090389
 H          5.9884268942        1.7691127881        2.7442427039
 H          3.7373024416        1.9026454508        1.6631754824
 H          1.9661306767       -0.5316123997       -2.1171352006
 H          3.4542992977       -1.0363954091        1.1384123717
 H          2.2430549101       -2.1404416745        2.9895820630
 H         -0.1057791583       -2.8258910150        2.7001705372
 C         -1.6759114387       -2.5285993830        0.4964374542
 H         -2.0801957973       -2.7722151189        1.4916500309
 C         -1.8735722023       -3.7528446313       -0.3865621372
 C         -0.7982811801       -4.3449382445       -1.2429765803
 C         -1.2401874579       -5.0576698336       -0.0025291553
 H         -1.8188297595       -5.9634367934       -0.1001485314
 H         -0.5668013024       -5.0494956190        0.8413297232
 H         -1.0892662054       -4.7388984006       -2.2048496693
 H          0.1738753461       -3.8778291902       -1.2432020407
 H         -2.8811158023       -3.8007623347       -0.7872210598
 O         -3.0063096404       -0.8432446074        2.2892793439
