  62
        -98.93748609
 C         -1.9710537953       -0.9184882008        0.2562598454
 C         -2.3860478936        0.3399119314       -0.2393426669
 C         -3.7402868430        0.7774418123        0.1463410806
 C         -4.4865186097       -0.0007362796        0.9480702473
 C         -5.8658917049        0.2642556164        1.4975931456
 C         -6.9086912583        0.8581832039        0.5406028496
 C         -6.7697408456        0.4205834526       -0.9247992885
 H         -6.0658983016       -0.4097561673       -1.0026118601
 H         -7.7372590310        0.0619832189       -1.2810163945
 C         -6.3221934086        1.5571202706       -1.8472025685
 H         -6.8712431589        2.4624471804       -1.5790798878
 H         -6.5938398481        1.3031138962       -2.8746849363
 C         -4.8242294753        1.8596564540       -1.8370071901
 H         -4.2788715804        1.0443020728       -2.3198801129
 H         -4.6581244614        2.7563019727       -2.4391085158
 C         -4.2019403024        2.0770491813       -0.4478985555
 H         -3.3033985850        2.6875938565       -0.5730339954
 H         -4.8871662294        2.6018558724        0.2132853071
 H         -7.8882778139        0.5600567967        0.9181287830
 H         -6.8720776487        1.9455668074        0.5908013588
 H         -5.7647790771        0.9194968403        2.3677970909
 H         -6.2153858512       -0.7040356937        1.8639204459
 O         -4.0358864789       -1.1966621209        1.4225246042
 C         -2.7832514800       -1.6818377303        1.0964409550
 O         -2.5115433622       -2.7871596482        1.6063376252
 O         -1.6710647439        1.0751036896       -0.9691532846
 C         -0.5948702822       -1.4792762551       -0.0653086010
 C          0.4410874670       -0.6308517048        0.6299978968
 C          0.6581666772       -0.8105733736        1.9932784896
 C          1.5828310553       -0.0380485592        2.6707065348
 C          2.3090111982        0.9333197144        2.0030209510
 C          2.0923075310        1.1248484895        0.6459029653
 C          1.1716608597        0.3403124046       -0.0358965780
 H          1.0063267797        0.5097026728       -1.0878462337
 N          2.8439641424        2.1019805601       -0.0412772185
 S          4.5021195837        1.8561539698       -0.0354909348
 O          5.0349222683        2.2319870588        1.2495047499
 O          5.0112822405        2.5860294554       -1.1746522227
 C          4.6771050724        0.0980671176       -0.2808133372
 C          4.9253854803       -0.7222540164        0.8006082267
 C          4.9644848808       -2.0935474796        0.6048127756
 C          4.7513055761       -2.6172594597       -0.6606722180
 C          4.5062986558       -1.7792426915       -1.7377933723
 C          4.4629444341       -0.4080447129       -1.5475490390
 H          4.2805198869        0.2759900536       -2.3608912553
 H          4.3436021120       -2.1908837123       -2.7208983695
 H          4.7772355664       -3.6852900431       -0.8099294056
 H          5.1554952603       -2.7479358107        1.4400453008
 H          5.0865623560       -0.2747787258        1.7674020338
 H          2.5182754223        2.2547009734       -0.9853662336
 H          3.0397259103        1.5429348386        2.5098609183
 H          1.7406712464       -0.1917717716        3.7274361819
 H          0.0837628844       -1.5635290479        2.5153605736
 H         -0.5679543768       -2.4798363172        0.3863011283
 C         -0.3697344891       -1.6102058828       -1.5574615175
 C          0.8062988887       -2.3964452861       -2.0524220154
 C         -0.5813675677       -2.9374166401       -2.2182374967
 H         -1.0138443622       -2.9565682838       -3.2075110870
 H         -0.8877017138       -3.7635365250       -1.5933138727
 H          1.3277111773       -2.0452370821       -2.9295501930
 H          1.4467736521       -2.8514705779       -1.3122039385
 H         -0.6616797624       -0.7284328782       -2.1142527973
