  62
        -98.93807230
 C         -2.1897276036       -0.9327824994       -0.0210160084
 C         -2.9079408232       -0.1895956554        0.9410441894
 C         -3.7348087581        0.9273739472        0.4435330159
 C         -3.7342767374        1.1930101677       -0.8764348517
 C         -4.5200676242        2.2437130262       -1.6148840251
 C         -6.0001980316        1.8644792068       -1.7847474008
 C         -6.6625066513        1.2832823745       -0.5383369821
 H         -7.6673798371        0.9564408859       -0.8182912362
 H         -6.1112934835        0.3967308838       -0.2195496562
 C         -6.7967989519        2.2478220891        0.6375964843
 H         -7.3608533549        1.7310049021        1.4182453818
 H         -7.3821733055        3.1152861529        0.3247015875
 C         -5.4852000186        2.7433805570        1.2503013062
 H         -5.7297773540        3.2112637518        2.2085273821
 H         -5.0329322283        3.5178971866        0.6366447495
 C         -4.4672856172        1.6474088348        1.5504205983
 H         -3.6859441641        2.0657673925        2.1972900467
 H         -4.9476948196        0.8667907728        2.1514741459
 H         -6.0670091900        1.1145259459       -2.5765804622
 H         -6.5475495826        2.7501529935       -2.1115775114
 H         -4.0685063653        2.3333875570       -2.6053339635
 H         -4.4202504468        3.2039473208       -1.1175319968
 O         -2.9998945924        0.4651956136       -1.7659387050
 C         -2.2149370682       -0.6041699179       -1.3759520391
 O         -1.6016877220       -1.1622637501       -2.3044110657
 O         -2.8650814308       -0.4436496788        2.1770902365
 C         -1.3333411654       -2.0996116212        0.4323758205
 C          0.1161906995       -1.8584560776        0.0868771280
 C          0.9463787382       -2.8370366977       -0.4434628372
 C          2.2733343414       -2.5561530855       -0.7210880060
 C          2.8013150609       -1.3022281139       -0.4769202755
 C          1.9837980959       -0.3189299855        0.0653216568
 C          0.6577879403       -0.6056185097        0.3485759963
 H          0.0240100668        0.1624005158        0.7764703942
 N          2.5087078663        0.9636624518        0.3095166412
 S          3.9001470911        1.0723105772        1.2459536210
 O          3.9962705443       -0.0281293037        2.1771276522
 O          3.8668879024        2.3997326318        1.8205701870
 C          5.2241151633        0.9867622944        0.0592463810
 C          6.1974570692        0.0145699473        0.1812202947
 C          7.2235188724       -0.0261828913       -0.7501187910
 C          7.2577273699        0.9009781058       -1.7803948070
 C          6.2735319734        1.8725504071       -1.8871973880
 C          5.2459134498        1.9197601757       -0.9588585179
 H          4.4643097228        2.6598442269       -1.0036653916
 H          6.3033151988        2.5919238095       -2.6896700587
 H          8.0560485486        0.8666793820       -2.5048016334
 H          7.9897607567       -0.7802505559       -0.6688038197
 H          6.1260117281       -0.6885485406        0.9956269595
 H          1.8179649597        1.6255495165        0.6330013682
 H          3.8313306529       -1.0775727252       -0.7005569204
 H          2.9044711179       -3.3254595957       -1.1389013789
 H          0.5538281368       -3.8203145720       -0.6435783820
 H         -1.4195291835       -2.1167061332        1.5298610862
 C         -1.8800592571       -3.3999906277       -0.1188318496
 C         -1.7074925739       -4.6787013935        0.6435828082
 C         -3.0568213395       -4.0329463224        0.5593731854
 H         -3.8165725159       -4.4970421436       -0.0513443822
 H         -3.4451581094       -3.5401924471        1.4390337323
 H         -1.5430040344       -5.5908855134        0.0901558100
 H         -1.1823131843       -4.6323883888        1.5857355559
 H         -1.8464988043       -3.4376867199       -1.2018602514
