  62
        -98.93555377
 C         -2.2857876895       -1.2707744096        0.1644045575
 C         -3.2258880919       -0.6109423369        0.9915730522
 C         -4.0345784716        0.4607422922        0.3781171167
 C         -3.8090969888        0.7802784746       -0.9095100458
 C         -4.4667964201        1.8569291567       -1.7308759866
 C         -3.9418530744        3.2613896189       -1.3907475311
 C         -3.7898091561        3.5479911216        0.1010841863
 H         -3.1161818598        2.8093966290        0.5405029880
 H         -3.3075662213        4.5239603935        0.2035305567
 C         -5.0940532940        3.5843648931        0.8944474599
 H         -5.7443164280        4.3560328122        0.4765818339
 H         -4.8427919326        3.8797333823        1.9163916119
 C         -5.8771908474        2.2713937944        0.9582005053
 H         -6.4142224810        2.0904736298        0.0310580745
 H         -6.6349392979        2.3831796975        1.7391681657
 C         -5.0453086244        1.0488918302        1.3332934095
 H         -4.4971896154        1.2585244931        2.2589775569
 H         -5.7276833924        0.2274572801        1.5836395122
 H         -4.6103694610        3.9981486355       -1.8391581041
 H         -2.9571179368        3.3741751427       -1.8518605216
 H         -5.5456130857        1.8075037316       -1.6169722327
 H         -4.2312003502        1.6424525738       -2.7756383864
 O         -2.8575715611        0.1517737096       -1.6566022647
 C         -2.0719489780       -0.8738070660       -1.1562700970
 O         -1.2486750039       -1.3245821098       -1.9736811346
 O         -3.3818761883       -0.8948895877        2.2104397459
 C         -1.4410128183       -2.3668541306        0.7896267956
 C          0.0148736288       -2.1315283077        0.4734548100
 C          0.8227891235       -3.0447346076       -0.1894582147
 C          2.1447098021       -2.7385496403       -0.4636116458
 C          2.6894794784       -1.5265323414       -0.0824466015
 C          1.8888688293       -0.6033045174        0.5777334147
 C          0.5684099355       -0.9157610360        0.8575427002
 H         -0.0575607110       -0.1921015997        1.3670362988
 N          2.4322417863        0.6308431756        0.9787557459
 S          3.2755107551        1.5350697208       -0.1587665099
 O          3.1786039527        2.9019343443        0.3081679611
 O          2.8105151407        1.2809147444       -1.5023443473
 C          4.9573367406        0.9803439196        0.0264537252
 C          5.6544109730        0.5184201164       -1.0725777529
 C          6.9658570133        0.1002859860       -0.9068609345
 C          7.5534188308        0.1520169331        0.3478231966
 C          6.8401314569        0.6209791619        1.4411392433
 C          5.5295226334        1.0416052929        1.2821846440
 H          4.9418648344        1.4161346197        2.1035164317
 H          7.3003266422        0.6597519949        2.4152958103
 H          8.5734409441       -0.1748433499        0.4741825395
 H          7.5214097776       -0.2643149853       -1.7559114881
 H          5.1533745051        0.4905199439       -2.0273123076
 H          1.7748978286        1.2177362249        1.4724001500
 H          3.7156596953       -1.2824110151       -0.3035995275
 H          2.7592469914       -3.4544735912       -0.9878350174
 H          0.4113574103       -3.9849880135       -0.5171564048
 H         -1.5769187626       -2.2251098497        1.8754164740
 C         -1.9105502755       -3.7799006877        0.4802214120
 C         -3.3474859274       -4.0632761361        0.1620857835
 C         -2.3012468779       -4.2162308817       -0.8988491880
 H         -2.0357354127       -5.2149262724       -1.2137804943
 H         -2.2527237801       -3.4825513518       -1.6878798376
 H         -3.7988235796       -4.9529637665        0.5749053036
 H         -4.0213810556       -3.2211777607        0.0972743225
 H         -1.4039747048       -4.5160276274        1.0968866685
