  62
        -98.94044647
 C          2.4731625921        1.2292550683       -0.0040126721
 C          2.4286391840        0.0092686794       -0.7202015571
 C          3.7289599580       -0.6267246350       -0.9789701911
 C          4.8547396644       -0.0250894208       -0.5527649310
 C          6.2373306397       -0.5909025652       -0.6966824587
 C          6.6212768033       -1.4332706662        0.5280483084
 C          5.5600399021       -2.4572676038        0.9307920127
 H          5.9514422459       -3.0123082886        1.7860369122
 H          4.6657773946       -1.9302903238        1.2715593851
 C          5.1719562901       -3.4404654141       -0.1823077856
 H          5.9375464671       -3.4423698422       -0.9589262806
 H          5.1330055318       -4.4477390836        0.2375827834
 C          3.8069486187       -3.1712767836       -0.8188344153
 H          3.0479928180       -3.0757191055       -0.0377363914
 H          3.5387829033       -4.0376585636       -1.4295100999
 C          3.7237646462       -1.9334822717       -1.7211123395
 H          4.5266217900       -1.9615015195       -2.4607598086
 H          2.7667044097       -1.9724592857       -2.2501638808
 H          7.5607489934       -1.9456515361        0.3135958526
 H          6.7854856926       -0.7605071972        1.3728489698
 H          6.2832823877       -1.1985012044       -1.5981973547
 H          6.9400864015        0.2384988430       -0.7911241975
 O          4.8570011853        1.1581253737        0.1129210129
 C          3.6713943159        1.8074267591        0.4144457520
 O          3.8131819050        2.8710568441        1.0508238027
 O          1.3603312711       -0.5247801755       -1.1212559443
 C          1.1835392361        1.9583266973        0.3267672959
 C          0.2552557731        1.0442783011        1.0891108172
 C          0.7478281031        0.3656834236        2.2013426571
 C         -0.0620794987       -0.4891701226        2.9222335214
 C         -1.3793128999       -0.6879012110        2.5471882223
 C         -1.8865110434       -0.0035485821        1.4495223766
 C         -1.0723606584        0.8653491030        0.7348400305
 H         -1.4869136115        1.3787856365       -0.1152457251
 N         -3.2395543992       -0.1522016193        1.0876607054
 S         -3.6764479769       -0.3101359852       -0.5363447736
 O         -3.0679205248       -1.4905830631       -1.1099917666
 O         -3.4411504496        0.9355375560       -1.2189842096
 C         -5.4320191425       -0.5612682825       -0.3427941665
 C         -5.9542706516       -1.8386259695       -0.4124584966
 C         -7.3173284902       -2.0167531430       -0.2335724672
 C         -8.1299304434       -0.9207626530        0.0137231188
 C         -7.5913129253        0.3558173371        0.0797923593
 C         -6.2298225712        0.5405931836       -0.0994167069
 H         -5.7679488824        1.5133860153       -0.0654521716
 H         -8.2266844258        1.2058682656        0.2694101729
 H         -9.1901470925       -1.0618416050        0.1527662395
 H         -7.7392441749       -3.0074056620       -0.2879694308
 H         -5.2856105806       -2.6597321146       -0.6158193099
 H         -3.6889030564       -0.8865079865        1.6201855285
 H         -2.0095406415       -1.3659120905        3.1030798964
 H          0.3361457750       -1.0133981205        3.7782535938
 H          1.7813469606        0.5134968235        2.4861172925
 H          1.4648415851        2.7913094484        0.9883245080
 C          0.5690207401        2.5275887058       -0.9347355126
 C         -0.2772970290        3.7621341112       -0.8706991915
 C          1.0908753698        3.8219524369       -1.4789709082
 H          1.1776640072        3.9332583069       -2.5493970718
 H          1.8786389976        4.3093301541       -0.9227248395
 H         -1.1364040103        3.8279270289       -1.5214794370
 H         -0.4208551569        4.2181516261        0.0972595061
 H          0.2945540482        1.7588976299       -1.6495431554
