  62
        -98.94227226
 C          1.5889609454        1.3906967167        0.4842720707
 C          1.4050045778        0.1983038136       -0.2596426808
 C          2.2288817123       -0.9472829386        0.1622957167
 C          3.0118264745       -0.8389216303        1.2498662850
 C          3.9390842616       -1.9064097319        1.7525729143
 C          5.3408813267       -1.7520319299        1.1459046517
 C          5.3410450593       -1.5808381457       -0.3733279928
 H          4.8675970743       -0.6290330064       -0.6253442307
 H          6.3834767620       -1.5137722368       -0.6922798282
 C          4.6426556902       -2.7126183221       -1.1400479539
 H          4.5498774709       -3.5906515231       -0.4998281865
 H          5.2677061105       -2.9960383271       -1.9894503240
 C          3.2676034808       -2.3450534571       -1.7012499642
 H          3.3421623577       -1.4136098334       -2.2679789526
 H          2.9670236575       -3.1298224572       -2.4001273547
 C          2.1421167349       -2.1952918786       -0.6696238224
 H          1.1970499966       -2.1197647716       -1.2144619797
 H          2.1084694950       -3.0816355976       -0.0331412380
 H          5.9322848052       -2.6290061290        1.4155065274
 H          5.8157708730       -0.8737238934        1.5897951158
 H          4.0110222481       -1.8174657261        2.8380213640
 H          3.5303390853       -2.8839407536        1.5044360489
 O          3.0783955154        0.2901602591        2.0024082243
 C          2.3873787283        1.4319668849        1.6297751970
 O          2.5484667111        2.4009505271        2.3993966284
 H         -0.8380273605        1.3656341381        1.6640135155
 C         -1.3237983574        1.6890473152        0.7507196025
 C         -0.5834440904        2.3889900399       -0.1949834496
 C         -1.2157943562        2.7906115525       -1.3636909452
 C         -2.5531514188        2.5003314115       -1.5725341040
 C         -3.2848147612        1.8021421784       -0.6307419118
 C         -2.6576817063        1.3826513536        0.5360254046
 N         -3.3854030159        0.6556458982        1.4974528898
 S         -4.2782502405       -0.6643202300        0.9826789339
 O         -5.4579082158       -0.1990783830        0.2970711915
 O         -4.5065909334       -1.4472117782        2.1768728031
 C         -3.2259590619       -1.5560870331       -0.1456127875
 C         -2.2586635322       -2.3844581082        0.3870470390
 C         -1.4130139603       -3.0661627329       -0.4712698062
 C         -1.5375849148       -2.8954033747       -1.8412862918
 C         -2.5096799069       -2.0558268808       -2.3600742610
 C         -3.3664856627       -1.3799611741       -1.5067179418
 H         -4.1430844074       -0.7296543543       -1.8734165761
 H         -2.6009289027       -1.9228794905       -3.4259582932
 H         -0.8723732334       -3.4211183838       -2.5083416988
 H         -0.6573747014       -3.7221978018       -0.0695986552
 H         -2.1947019957       -2.4943030486        1.4582068481
 H         -2.8402056028        0.4087506832        2.3105765781
 H         -4.3272809237        1.5711830558       -0.7778045404
 H         -3.0321180867        2.8207830765       -2.4852443944
 H         -0.6595217806        3.3150158092       -2.1226310859
 C          0.8652583821        2.6747782107        0.1183378029
 H          0.8913295795        3.2877944724        1.0350124533
 C          1.5667189337        3.4841529988       -0.9637268720
 C          3.0398354822        3.3451967794       -1.2040686449
 C          2.0643265094        2.8540763635       -2.2287286989
 H          1.9695453632        3.4086100884       -3.1508595478
 H          1.9248733561        1.7908176365       -2.3415734601
 H          3.6093690409        4.2374776485       -1.4172816871
 H          3.5786968242        2.6169405680       -0.6149840460
 H          1.1650239673        4.4895767602       -1.0431849665
 O          0.6065943360        0.0829919981       -1.2230590509
