  62
        -98.94557999
 C          2.4970210187        1.1761462907       -0.0115151700
 C          3.1486117689        0.3378500208        0.9240651500
 C          3.7515569292       -0.8834791990        0.3801912400
 C          3.6601175593       -1.1429517389       -0.9370305601
 C          4.2309224197       -2.3423836487       -1.6437098101
 C          3.3251202600       -3.5805830890       -1.5923042402
 C          3.2510076301       -4.2756648891       -0.2321273903
 H          4.2605236202       -4.4768183888        0.1278098598
 H          2.7620323804       -5.2387835492       -0.3909527603
 C          2.4680421599       -3.4975883993        0.8350300198
 H          1.7845180700       -4.1754473895        1.3522747697
 H          1.8491625797       -2.7373558795        0.3500514398
 C          3.3407114997       -2.8309704992        1.8993612698
 H          3.8616858998       -3.5981366691        2.4762328998
 H          2.6878549895       -2.2819995994        2.5831899898
 C          4.3785714994       -1.8474772389        1.3419551799
 H          5.1915482296       -2.3908823886        0.8616974099
 H          4.7851828093       -1.2699794988        2.1757037600
 H          3.7096152402       -4.2971770488       -2.3217095202
 H          2.3192437999       -3.2921297592       -1.9085325402
 H          5.2076561697       -2.5862463285       -1.2252593501
 H          4.3605215896       -2.0546226686       -2.6891247401
 O          3.0281807792       -0.3099569590       -1.8053143200
 C          2.4021539688        0.8480768508       -1.3644178500
 O          1.8196442987        1.4865311207       -2.2605162700
 O          3.2152180088        0.5937719808        2.1572763300
 C          1.7997704684        2.4295060805        0.4898388401
 C          0.3124125384        2.2629067701        0.2950505100
 C         -0.4834343018        3.1525981100       -0.4125528100
 C         -1.8329955817        2.8961351797       -0.5883524500
 C         -2.4164646914        1.7589605395       -0.0612686601
 C         -1.6304605112        0.8664792996        0.6567899699
 C         -0.2822156013        1.1272116500        0.8335458899
 H          0.3310343189        0.4264332901        1.3879799399
 N         -2.2176662809       -0.2960487905        1.1991307898
 S         -2.9126288506       -1.3552335907        0.0901051997
 O         -2.8912448403       -2.6498560207        0.7366182696
 O         -2.2655545906       -1.2710467904       -1.1997693803
 C         -4.5969302308       -0.7910476211       -0.0248795403
 C         -5.3490371408       -0.7519438113        1.1331448496
 C         -6.6621860509       -0.3152840617        1.0629588596
 C         -7.1984642510        0.0697621983       -0.1570001904
 C         -6.4311274909        0.0212620985       -1.3108159803
 C         -5.1160277908       -0.4133005211       -1.2474814603
 H         -4.4782374108       -0.4609879109       -2.1158207603
 H         -6.8493573410        0.3209198085       -2.2583220203
 H         -8.2207259711        0.4096657380       -0.2090068504
 H         -7.2620147910       -0.2758626219        1.9578451796
 H         -4.8940555008       -1.0634180313        2.0584337796
 H         -1.5894999608       -0.8081472604        1.8031919798
 H         -3.4651667314        1.5540720492       -0.2025182502
 H         -2.4383832519        3.5920873195       -1.1487130200
 H         -0.0451211620        4.0390197501       -0.8401190199
 H          2.0012408483        2.4614861105        1.5708651901
 C          2.3721064381        3.6742466807       -0.1510559598
 C          2.2565382877        4.9953245606        0.5472976002
 C          3.5856666579        4.3098792510        0.4558706203
 H          4.3357808178        4.7199273812       -0.2034374997
 H          3.9912690780        3.8553857810        1.3480281202
 H          2.0957290275        5.8809618906       -0.0483428797
 H          1.7597444877        5.0111469604        1.5054545102
 H          2.3058648581        3.6562570407       -1.2326934698
