  62
        -98.94244998
 C         -1.9749699621       -1.0621466163       -0.1841662578
 C         -1.1208260237       -1.5136861389       -1.2204664079
 C         -0.1345740653       -2.5519420503       -0.8767630375
 C         -0.1014810652       -3.0194446190        0.3830508929
 C          0.8661414535       -4.0088642900        0.9713916133
 C          2.0690848153       -3.2793309915        1.5962743316
 C          3.2364034450       -3.0399230446        0.6404845005
 H          3.9759347464       -2.4422113653        1.1787975993
 H          3.7008048931       -3.9961505157        0.3885791412
 C          2.8622058853       -2.3084911653       -0.6504341800
 H          2.1744547469       -1.4966272938       -0.4082557504
 H          3.7673117758       -1.8509620773       -1.0551859012
 C          2.2476582929       -3.2288972154       -1.7153670386
 H          2.4102093013       -4.2666299653       -1.4247135676
 H          2.7740169025       -3.0854478273       -2.6610959691
 C          0.7570431631       -3.0017361931       -2.0026650477
 H          0.6486890839       -2.2257646737       -2.7665575585
 H          0.3356255012       -3.9185560728       -2.4292390164
 H          1.7209926672       -2.3186792505        1.9881306008
 H          2.4351909949       -3.8646154612        2.4427473820
 H          0.3284041332       -4.5365667883        1.7619433242
 H          1.1877656917       -4.7294241114        0.2247291838
 O         -0.9617053537       -2.5873657464        1.3426378931
 C         -1.8840751021       -1.5795361851        1.1095119327
 O         -2.5462017608       -1.2677099728        2.1185162528
 O         -1.1721873837       -1.0504888101       -2.3935473184
 C         -2.9012053304        0.0893706650       -0.5297541284
 C         -2.2149597879        1.4193330440       -0.2970699103
 C         -2.5341942565        2.5344133337       -1.0652949513
 C         -1.8666009742        3.7313055928       -0.8799530530
 C         -0.8390383234        3.8319265019        0.0425386961
 C         -0.5123933048        2.7246401322        0.8146937071
 C         -1.2266188369        1.5444246233        0.6657573889
 H         -0.9722919080        0.7061058735        1.2947053796
 N          0.5532360560        2.7541399413        1.7345543562
 S          1.7333969738        1.5685274291        1.6043787867
 O          1.1914552918        0.2748860504        1.9290276984
 O          2.8120317152        2.0395190881        2.4460318254
 C          2.2400758726        1.6218960264       -0.1041705238
 C          1.4833399808        0.9624451867       -1.0515033325
 C          1.8486858599        1.0507930646       -2.3851793829
 C          2.9624464110        1.7914384623       -2.7480547945
 C          3.7148775328        2.4475221020       -1.7848572757
 C          3.3496769337        2.3683609541       -0.4507583954
 H          3.9074853551        2.8569745239        0.3316787737
 H          4.5823189136        3.0208437302       -2.0696652370
 H          3.2445673203        1.8553471107       -3.7870544648
 H          1.2497572985        0.5364451849       -3.1203841719
 H          0.6224771900        0.3883350685       -0.7471598113
 H          0.9930509476        3.6594718306        1.8255878749
 H         -0.2922604617        4.7548285311        0.1614457447
 H         -2.1280186632        4.5893468026       -1.4797640738
 H         -3.3018451172        2.4553185843       -1.8194725206
 H         -3.0845405113        0.0047958241       -1.6108076581
 C         -4.2376488299        0.0533884181        0.1841766827
 C         -5.4617856795        0.5849288995       -0.4970563370
 C         -5.2996586819       -0.8905048506       -0.2913851955
 H         -5.9108713823       -1.3871344587        0.4466853154
 H         -5.0712367636       -1.5036104319       -1.1511491150
 H         -6.1921245281        1.1101431514        0.0987894130
 H         -5.3585765496        0.9631940082       -1.5024813975
 H         -4.1520155789        0.1993548691        1.2534574224
