  62
        -98.94498201
 C          2.0593659845        1.3362133605        0.0220569247
 C          2.6532525205        0.6750259261        1.1233800651
 C          3.8288161954       -0.1477140232        0.8188966632
 C          4.2723398032       -0.2341732668       -0.4486936106
 C          5.4710680484       -1.0151923477       -0.9148444789
 C          5.1850792716       -2.5001114379       -1.1778158773
 C          4.9739844214       -3.3536243196        0.0734206088
 H          4.9988279575       -4.3982404215       -0.2431726732
 H          5.8071177278       -3.2018590451        0.7603796173
 C          3.6487550508       -3.0913337675        0.8026422801
 H          3.1755018913       -4.0439514290        1.0523131867
 H          2.9651680433       -2.5614643350        0.1344375282
 C          3.7878801665       -2.2988259921        2.1027439307
 H          2.7888020321       -2.1424949143        2.5180643536
 H          4.3639575305       -2.8806396035        2.8256059825
 C          4.4534330007       -0.9260613094        1.9376100259
 H          4.3054212854       -0.3602481418        2.8606683239
 H          5.5231352289       -1.0453293414        1.7680203209
 H          4.3078870613       -2.5781713760       -1.8246034214
 H          6.0388034310       -2.9041285591       -1.7267151335
 H          6.2762949964       -0.9220895422       -0.1856140853
 H          5.7948422931       -0.5567061250       -1.8516610273
 O          3.6702695234        0.4129718040       -1.4811434082
 C          2.5382879364        1.1915374857       -1.2803682069
 O          2.0704956620        1.6915781623       -2.3199246855
 O          2.2182018082        0.7644635914        2.3035957771
 C          0.8282935697        2.1929059863        0.2588255402
 C         -0.3534622129        1.5933308159       -0.4632961241
 C         -1.1796928765        2.3093919193       -1.3182863583
 C         -2.2344922670        1.6829057521       -1.9610170866
 C         -2.4956001197        0.3410758988       -1.7576537771
 C         -1.6890651111       -0.3794772986       -0.8844542794
 C         -0.6342173099        0.2496128347       -0.2424509876
 H         -0.0037708818       -0.3143578447        0.4340737126
 N         -1.9561103863       -1.7386352598       -0.6527211014
 S         -3.5479369239       -2.2096622820       -0.4455170663
 O         -3.4852273612       -3.3971780099        0.3774746096
 O         -4.1785267264       -2.3700402731       -1.7321605333
 C         -4.3263544323       -0.8721503081        0.4430798875
 C         -5.3988727842       -0.2072502611       -0.1152840812
 C         -5.9718134513        0.8450610846        0.5809354102
 C         -5.4621102521        1.2145090819        1.8157320737
 C         -4.3861394444        0.5340864287        2.3654084943
 C         -3.8107974519       -0.5199184208        1.6747541676
 H         -2.9757775028       -1.0704800047        2.0781109137
 H         -3.9904420938        0.8221091352        3.3262103798
 H         -5.9050651620        2.0368220892        2.3549982110
 H         -6.8098325669        1.3742432776        0.1568942903
 H         -5.7609438864       -0.5256233211       -1.0792750333
 H         -1.3501280554       -2.1687355255        0.0297183029
 H         -3.2996276504       -0.1636414346       -2.2681064628
 H         -2.8596846500        2.2480617542       -2.6350351573
 H         -0.9912505363        3.3553430796       -1.4936541790
 H          0.6343730732        2.1275937563        1.3398422598
 C          1.0990919393        3.6379197936       -0.0997556767
 C          0.3293223347        4.7352043971        0.5707369702
 C          1.7731708293        4.5189561057        0.9075813161
 H          2.5000704323        5.2372453580        0.5591791204
 H          2.0174752141        4.0822356980        1.8650241304
 H          0.0647880034        5.6073912247       -0.0075793430
 H         -0.4096080573        4.4504829342        1.3041093853
 H          1.3772988270        3.7651826813       -1.1396550128
