  62
        -98.94230595
 C         -2.6851709887       -1.2130003384        0.1357372358
 C         -2.4875250180       -0.3111164298       -0.9380377685
 C         -3.3883769415        0.8508226080       -0.9710134312
 C         -4.3389778547        0.9795057318       -0.0282096205
 C         -5.2682440982        2.1507868579        0.0992474539
 C         -4.6740729447        3.2277963956        1.0184886249
 C         -3.2286465357        3.5988063994        0.6855508536
 H         -2.9281129852        4.3860889111        1.3802700106
 H         -2.5847420875        2.7375717853        0.8792814914
 C         -3.0116002098        4.0793331729       -0.7561904471
 H         -3.9653269419        4.3736229786       -1.1958164726
 H         -2.3758335447        4.9669007029       -0.7371381864
 C         -2.3267374545        3.0598351399       -1.6682700823
 H         -2.0289033889        3.5716219278       -2.5872618490
 H         -1.4168523820        2.6906054367       -1.1879920186
 C         -3.1803701095        1.8513619785       -2.0728211579
 H         -2.6473405477        1.3179224405       -2.8652690234
 H         -4.1377399173        2.1921361239       -2.4718564709
 H         -5.3032285943        4.1177480735        0.9585105201
 H         -4.7037609338        2.8593457826        2.0465732773
 H         -6.2092623901        1.8000276583        0.5261509892
 H         -5.4609007324        2.5660239162       -0.8879711571
 O         -4.5253893606        0.0702706320        0.9626971918
 C         -3.6919432877       -1.0278801707        1.0857177627
 O         -3.9474699829       -1.7590916398        2.0636447079
 O         -1.6082767170       -0.4556366282       -1.8270421563
 C         -1.7619305851       -2.4051761910        0.3349508613
 C         -0.3982438944       -1.8636295520        0.6905887382
 C         -0.1833795689       -1.3882212128        1.9823552393
 C          1.0272591357       -0.8228371408        2.3318313722
 C          2.0443437972       -0.7022191974        1.3993604954
 C          1.8391109418       -1.1694486893        0.1085182249
 C          0.6268477160       -1.7607582400       -0.2343686574
 H          0.4769731398       -2.1094229679       -1.2432785920
 N          2.8283829508       -1.0156740880       -0.8637090285
 S          4.4398857982       -0.7878836245       -0.5392963748
 O          5.0980254790       -0.9526430683       -1.8164549126
 O          4.8995512630       -1.6476045862        0.5269949671
 C          4.5528955826        0.9165453943       -0.0324901995
 C          3.8445480987        1.8660320712       -0.7421890552
 C          3.9405955595        3.1952056788       -0.3621671144
 C          4.7423566599        3.5521627410        0.7115843403
 C          5.4504886806        2.5878401347        1.4117744205
 C          5.3568017957        1.2564301220        1.0378322427
 H          5.8828456152        0.4728351311        1.5596281650
 H          6.0727760926        2.8670506167        2.2467748670
 H          4.8138644613        4.5876757807        1.0046797428
 H          3.3882959078        3.9466206460       -0.9034233154
 H          3.2273275261        1.5545069731       -1.5688196891
 H          2.6268477566       -1.4004912400       -1.7718651488
 H          2.9907074258       -0.2629951399        1.6686058816
 H          1.1825267676       -0.4636620095        3.3379770570
 H         -0.9855270898       -1.4616271217        2.7041449577
 H         -2.1515545687       -2.9473066974        1.2069093177
 C         -1.7703562601       -3.3355894673       -0.8588655556
 C         -1.2106470754       -4.7180413099       -0.7146661519
 C         -2.6891982936       -4.5183994492       -0.8556667324
 H         -3.1627715454       -4.8050213137       -1.7827440721
 H         -3.3114556089       -4.6656136086        0.0151073663
 H         -0.6682948602       -5.1462776365       -1.5439727350
 H         -0.8267767493       -5.0010667209        0.2539869620
 H         -1.6281894554       -2.8250198440       -1.8030759305
