  62
        -98.93194426
 C         -2.5430253982        1.3354052026       -0.3071404340
 C         -2.4756776192        0.2058995594        0.5451766321
 C         -3.6919896875       -0.6221043754        0.6099255524
 C         -4.7765545530       -0.2822021585       -0.1075046440
 C         -6.1135471800       -0.9752155812       -0.1083804857
 C         -6.1382931702       -2.4104514871       -0.6685764940
 C         -5.9839788036       -3.5065474722        0.3929799911
 H         -6.3113687764       -3.1115895375        1.3555461119
 H         -6.6576390193       -4.3299663699        0.1470987947
 C         -4.5810738192       -4.1045771496        0.5358054153
 H         -4.5527094381       -4.6708883047        1.4692390732
 H         -4.4090424148       -4.8090556315       -0.2811516954
 C         -3.4249168598       -3.1042926239        0.5282023212
 H         -2.5167383765       -3.6292718729        0.8306576202
 H         -3.2504550355       -2.7515153098       -0.4911340515
 C         -3.6318401272       -1.8750952553        1.4342662552
 H         -4.5351538087       -1.9848635835        2.0326460754
 H         -2.7811412919       -1.7638636697        2.1095898905
 H         -5.3737483221       -2.5139101202       -1.4381132049
 H         -7.1061091936       -2.5420841794       -1.1551309009
 H         -6.5072711962       -0.9778519300        0.9106462894
 H         -6.7660409851       -0.3448774970       -0.7161555083
 O         -4.7952308881        0.8068105471       -0.9248549162
 C         -3.6830922045        1.6185494818       -1.0645560020
 O         -3.8308819110        2.5493191183       -1.8818814418
 H          0.8368793110        1.9791196746        1.1410971412
 C          0.9305628606        1.4364963008        0.2131505962
 C         -0.0992751236        1.4722965397       -0.7125566362
 C          0.0376007349        0.7394726367       -1.8882034306
 C          1.1721124495       -0.0125862611       -2.1247842522
 C          2.1946638926       -0.0529239861       -1.1930692304
 C          2.0684810847        0.6734869520       -0.0175122350
 N          3.0917481177        0.6185913882        0.9421029618
 S          4.6798082958        0.8303927326        0.4555386895
 O          5.3788412134        1.2922299957        1.6352566112
 O          4.7673840658        1.6763970611       -0.7125904992
 C          5.2366140906       -0.8142974436        0.0608847544
 C          5.0814292429       -1.8018121173        1.0138514552
 C          5.5210409747       -3.0840241214        0.7262974585
 C          6.1085169404       -3.3549509487       -0.5006208553
 C          6.2605602387       -2.3517454421       -1.4453378663
 C          5.8215310896       -1.0671746417       -1.1643666051
 H          5.9133267985       -0.2573581109       -1.8706538881
 H          6.7177789185       -2.5644115787       -2.3983729620
 H          6.4496917969       -4.3540034468       -0.7216309780
 H          5.4036804210       -3.8669602462        1.4582321130
 H          4.6217799409       -1.5512044541        1.9553637374
 H          2.8903607016        1.1287581809        1.7892595528
 H          3.0808204230       -0.6409404030       -1.3682336713
 H          1.2615731923       -0.5764621801       -3.0410747239
 H         -0.7648878039        0.7644913620       -2.6135383302
 C         -1.3612405158        2.2712202673       -0.5002872443
 H         -1.5775807884        2.8085208443       -1.4383512120
 C         -1.2231022244        3.3343206067        0.5795920592
 C         -2.4366865252        3.9256693256        1.2307720672
 C         -1.5044651281        3.0644003154        2.0260608488
 H         -0.8767780279        3.5402886813        2.7659831541
 H         -1.8244549656        2.0714995249        2.2989569729
 H         -2.4502637415        4.9879208773        1.4232504601
 H         -3.3986297516        3.5200136341        0.9527079823
 H         -0.4116741218        4.0231229212        0.3616496279
 O         -1.4698002059       -0.1042858373        1.2328101802
