  62
        -98.93964550
 C         -2.2738727762       -0.9092710039        0.6437792260
 C         -3.4121671932       -0.8685631405       -0.1986302196
 C         -4.3921777251        0.1892394757        0.0947076126
 C         -4.1667920679        1.0436440639        1.1080221209
 C         -5.0520834374        2.1995796388        1.4719914724
 C         -4.6274195718        3.4797383633        0.7389329930
 C         -4.4259076271        3.2934286336       -0.7650350656
 H         -4.1590722960        4.2680009947       -1.1797176595
 H         -3.5727497989        2.6308972799       -0.9301611722
 C         -5.6504450877        2.7393301847       -1.5066701974
 H         -6.5443544364        2.8728778441       -0.8964389896
 H         -5.7940978462        3.3152469401       -2.4232464897
 C         -5.5316437379        1.2705018882       -1.9169158316
 H         -4.5889067186        1.1133436052       -2.4469063956
 H         -6.3420336406        1.0461313608       -2.6154555700
 C         -5.6172707056        0.2508561536       -0.7744134176
 H         -6.5062436893        0.4465187722       -0.1717798014
 H         -5.7160661980       -0.7419376257       -1.2225253710
 H         -5.3855259870        4.2451765050        0.9146315247
 H         -3.6854984661        3.8284847469        1.1691614621
 H         -6.0826181954        1.9519933380        1.2248423032
 H         -4.9751011884        2.3650647608        2.5479226853
 O         -3.0655163967        0.9730836119        1.8998744150
 C         -2.1012195118        0.0035627850        1.6892504274
 O         -1.1518029880        0.0480792081        2.4993085205
 H          1.4048246518       -1.1407071861        0.7259086865
 C          1.0865503502       -1.1649910263       -0.3059090016
 C         -0.2126319258       -1.5387256580       -0.6199917854
 C         -0.6064039902       -1.5413246796       -1.9542843561
 C          0.2843730111       -1.1715386543       -2.9449600140
 C          1.5775227499       -0.7950424999       -2.6283943444
 C          1.9829490372       -0.7941921408       -1.2985589576
 N          3.3069564391       -0.4618903892       -0.9609295153
 S          3.6137538303        0.3590375162        0.4820162837
 O          3.5451203912       -0.5788291647        1.5739473934
 O          2.7734774543        1.5324528123        0.5763114700
 C          5.3126170080        0.8299106907        0.2110654985
 C          5.6146526978        2.1248148133       -0.1648056957
 C          6.9387625093        2.4643994767       -0.3958258697
 C          7.9322143814        1.5080034278       -0.2505394332
 C          7.6136640374        0.2120859929        0.1281455170
 C          6.2924119195       -0.1334663589        0.3622452672
 H          5.9977837211       -1.1239452194        0.6672255057
 H          8.3889046801       -0.5281752323        0.2427950024
 H          8.9615412248        1.7749239817       -0.4307631665
 H          7.1894359248        3.4718235536       -0.6866274187
 H          4.8096653321        2.8361508572       -0.2576589336
 H          3.8046685044       -0.0341727406       -1.7306897295
 H          2.2704110122       -0.5063033621       -3.4042995817
 H         -0.0335109797       -1.1719287380       -3.9767520350
 H         -1.6199198401       -1.8154789325       -2.2022700722
 C         -1.1603776046       -1.9340106774        0.4878551488
 H         -0.5954899522       -1.8982642626        1.4299446389
 C         -1.6704262444       -3.3489188310        0.2919504180
 C         -0.7531867694       -4.4930131370        0.5969630073
 C         -1.9207034225       -4.2080137131        1.4926122334
 H         -2.7630453496       -4.8831065286        1.4760793832
 H         -1.7252586005       -3.7771669168        2.4643797783
 H         -0.7915004651       -5.3667762804       -0.0350373644
 H          0.2351742263       -4.2553405347        0.9621241468
 H         -2.3491921484       -3.4526799629       -0.5435745515
 O         -3.6265808542       -1.6645953910       -1.1502494975
