  62
        -98.93539840
 C          2.0211949773        0.7057966305       -0.4156375030
 C          3.1626705815        1.2588430721        0.2181015058
 C          4.4360399259        0.5357306280        0.0602289465
 C          4.4546553465       -0.6208988919       -0.6272959961
 C          5.5946265947       -1.5520360923       -0.9835453025
 C          6.9460982593       -1.4364823842       -0.2833680539
 C          6.9318443996       -1.8054734001        1.1996533996
 H          6.7603748961       -2.8813211987        1.2880930165
 H          7.9193738220       -1.5913252963        1.6142226350
 C          5.8741132661       -1.1001146674        2.0449486263
 H          5.9749582565       -1.4586455580        3.0730185845
 H          4.8781998571       -1.3882449770        1.7016577473
 C          5.9686150357        0.4241534267        2.0736340815
 H          6.9722921346        0.7245199539        2.3806887106
 H          5.2659843524        0.7826226874        2.8307053511
 C          5.6262075522        1.1348128457        0.7527021699
 H          5.3574922488        2.1689664574        0.9870407046
 H          6.4839923837        1.1637317186        0.0849047579
 H          7.3602690510       -0.4425104184       -0.4247985059
 H          7.6188107296       -2.1340214638       -0.7899096987
 H          5.7519436130       -1.4294393137       -2.0610715679
 H          5.2043568636       -2.5653210260       -0.8441040229
 O          3.3242869991       -1.1341355652       -1.1918690367
 C          2.0888247147       -0.5053425774       -1.1040208916
 O          1.1748368805       -1.1283513762       -1.6741598235
 O          3.1234522425        2.3251615327        0.8877471288
 C          0.7059838126        1.4479572119       -0.2497932764
 C         -0.3609889913        0.5023478243        0.2372199532
 C         -0.3719591189        0.1220934453        1.5758709642
 C         -1.3155656909       -0.7696254459        2.0505581580
 C         -2.2657483207       -1.3041843292        1.1987110651
 C         -2.2612613602       -0.9326250264       -0.1392442481
 C         -1.3242663080       -0.0221477827       -0.6101238308
 H         -1.3187283893        0.2440400720       -1.6554442082
 N         -3.2182758707       -1.4784574272       -1.0099529685
 S         -4.8121082707       -1.5221304716       -0.5135039605
 O         -5.0164546876       -2.6285412540        0.3883094489
 O         -5.5906116990       -1.5485473564       -1.7318815225
 C         -5.0611748257        0.0173698825        0.3535950340
 C         -4.9413238094        1.1907345987       -0.3648284964
 C         -5.0879067928        2.3994942555        0.2953750139
 C         -5.3473661060        2.4144450953        1.6575365615
 C         -5.4684171364        1.2281413040        2.3639120382
 C         -5.3224735828        0.0158512814        1.7083177386
 H         -5.4090791197       -0.9289278718        2.2195482278
 H         -5.6723911835        1.2432725196        3.4224019022
 H         -5.4570958567        3.3570252238        2.1701826479
 H         -4.9966129232        3.3238492282       -0.2521728362
 H         -4.7466675350        1.1420398561       -1.4241895577
 H         -3.1260119190       -1.1748506630       -1.9673909090
 H         -2.9971578638       -2.0164968318        1.5446144919
 H         -1.3092241896       -1.0568708463        3.0910415020
 H          0.3781905410        0.5285093182        2.2402258289
 H          0.9083908385        2.1747379143        0.5533918992
 C          0.2745789537        2.2587381193       -1.4627609837
 C          1.2911235873        2.9729727896       -2.3011000334
 C          0.5204093045        1.8238927018       -2.8752693149
 H         -0.2393966773        2.0375032108       -3.6135229693
 H          1.0311188673        0.8877567047       -3.0369806979
 H          1.0675548097        3.9704454304       -2.6480707254
 H          2.3322361920        2.8167584314       -2.0584518164
 H         -0.6545447344        2.7891152297       -1.2760343709
