  62
        -98.93587206
 C         -2.6899813773       -1.1454248963       -0.3634001713
 C         -2.4371280911        0.0464135633       -1.0859089070
 C         -3.3646854434        1.1609097092       -0.8313570508
 C         -4.3745987924        1.0011536035        0.0418565337
 C         -5.3538932858        2.0693796760        0.4313803403
 C         -4.8664608070        2.8502055760        1.6599029755
 C         -3.4202715316        3.3334520166        1.5506801522
 H         -3.1971136302        3.8986645130        2.4581510240
 H         -2.7550180587        2.4667233252        1.5415370313
 C         -3.1339284022        4.2061543629        0.3206060812
 H         -4.0697707120        4.5900707239       -0.0869081667
 H         -2.5392993909        5.0669318604        0.6333659944
 C         -2.3496571279        3.5020168631       -0.7881898944
 H         -1.4587668166        3.0325128453       -0.3633300047
 H         -2.0129478294        4.2600656397       -1.5002635184
 C         -3.1230513592        2.4410311678       -1.5816252663
 H         -2.5175193994        2.1691487664       -2.4511653053
 H         -4.0653617770        2.8619453567       -1.9377182288
 H         -4.9452664482        2.2019765279        2.5357416738
 H         -5.5279612790        3.7054191024        1.8096685959
 H         -5.4989200044        2.7460055330       -0.4085568151
 H         -6.3055530829        1.5915043430        0.6698629510
 O         -4.5909744063       -0.1587040372        0.7128401158
 C         -3.7580519391       -1.2481711268        0.5340608266
 O         -4.0710299017       -2.2458823625        1.2138703034
 O         -1.4926824659        0.1967894266       -1.9050122732
 C         -1.8432310474       -2.4009774019       -0.5077532157
 C         -0.6104893387       -2.3230197857        0.3556150935
 C         -0.3348351674       -3.2994927069        1.3045673263
 C          0.8091710644       -3.2224880792        2.0808454882
 C          1.6986788285       -2.1744160858        1.9270883550
 C          1.4299568703       -1.1917675568        0.9825377980
 C          0.2833905070       -1.2709883323        0.2061647913
 H          0.0791958703       -0.5121171998       -0.5353910234
 N          2.3247282110       -0.1107451702        0.8163833094
 S          3.9190157664       -0.5552683858        0.4619864137
 O          3.9370430473       -1.4915487870       -0.6409144579
 O          4.5451633943       -1.0065973584        1.6789610853
 C          4.6149224262        1.0066214718       -0.0359355022
 C          4.5951039799        1.3549382170       -1.3730650888
 C          5.1153380106        2.5819748197       -1.7533590348
 C          5.6403868918        3.4357885904       -0.7948802621
 C          5.6523778048        3.0719687755        0.5434818726
 C          5.1344298336        1.8462461677        0.9304840363
 H          5.1297826276        1.5170782633        1.9563938638
 H          6.0634806297        3.7379831697        1.2848393782
 H          6.0447351194        4.3898255003       -1.0941965800
 H          5.1084728972        2.8663702640       -2.7933021075
 H          4.1856625952        0.6569000112       -2.0861522242
 H          1.9898144599        0.5194939114        0.0978597951
 H          2.6005000236       -2.1118395085        2.5141445046
 H          1.0124025886       -3.9889894045        2.8135986133
 H         -1.0273514060       -4.1183280257        1.4367193308
 H         -2.4727534941       -3.2134818526       -0.1132793263
 C         -1.5347616647       -2.7328995769       -1.9638954090
 C         -0.1543184497       -2.7838883443       -2.5415787449
 C         -0.9137677652       -4.0535309950       -2.3114151298
 H         -1.2914988442       -4.5985696832       -3.1631609842
 H         -0.5950367460       -4.6799756287       -1.4914923249
 H         -0.0262128683       -2.4318402499       -3.5541325985
 H          0.6890314174       -2.5726827388       -1.9018106934
 H         -2.3132527726       -2.3776177119       -2.6313790035
