  62
        -98.93803635
 C          2.3102945614       -1.0640974968        0.1841037486
 C          3.6960522746       -1.1734083822       -0.1053016933
 C          4.5673635365       -0.1531921739        0.4863474421
 C          4.0315061122        0.8235066452        1.2398720964
 C          4.7876450611        1.9269747542        1.9288368088
 C          5.0976642700        3.1296057566        1.0270024098
 C          6.1802043247        2.8913654960       -0.0265260552
 H          6.4485220838        3.8672765358       -0.4359794793
 H          7.0702808899        2.4841870931        0.4541627763
 C          5.7502804699        1.9742185675       -1.1800642204
 H          4.6603021895        1.8982066297       -1.1982834007
 H          6.0543387731        2.4178495983       -2.1308797246
 C          6.3447364608        0.5668253427       -1.1261238829
 H          7.4293556821        0.6226683937       -1.2419400043
 H          5.9452390455       -0.0062518382       -1.9667147549
 C          6.0303026780       -0.2025555236        0.1634378696
 H          6.6159425257        0.1959320712        0.9916256437
 H          6.3029340749       -1.2498946478        0.0121564868
 H          5.4248951290        3.9462469263        1.6747462402
 H          4.1739509037        3.4452636275        0.5359967920
 H          4.1568699994        2.2686037603        2.7523612079
 H          5.7161441100        1.5318353499        2.3421214015
 O          2.6977928699        0.9061384791        1.4824570507
 C          1.8001656909       -0.0153578334        0.9518646310
 O          0.6150181592        0.2188661511        1.2538087985
 O          4.1826231304       -2.0855940233       -0.8246273023
 C          1.3891538251       -2.0948632802       -0.4462965379
 C          0.2645486292       -1.3970273310       -1.1665800498
 C          0.5235909929       -0.7740839035       -2.3840017647
 C         -0.4713978507       -0.0821933975       -3.0480004253
 C         -1.7441185389        0.0056690505       -2.5114049594
 C         -2.0089138239       -0.6021661193       -1.2920929958
 C         -1.0099396193       -1.3072787688       -0.6321089794
 H         -1.2183092107       -1.7574565096        0.3259161145
 N         -3.2999768195       -0.5296145406       -0.7348715255
 S         -4.1370915770        0.9310199615       -0.8647846393
 O         -4.7044974571        1.0115661187       -2.1887935818
 O         -3.2982154563        2.0414849074       -0.4730152152
 C         -5.4354150784        0.6740881843        0.3284800401
 C         -6.6239708650        0.1022249249       -0.0832836135
 C         -7.6200790950       -0.1204449433        0.8541969208
 C         -7.4115424450        0.2289989034        2.1799735347
 C         -6.2131230871        0.8025923381        2.5782718745
 C         -5.2123517827        1.0272581215        1.6460453843
 H         -4.2686257647        1.4785641205        1.9100557592
 H         -6.0540269391        1.0752333513        3.6092312977
 H         -8.1882168844        0.0562447689        2.9081627829
 H         -8.5537496800       -0.5642254430        0.5485730547
 H         -6.7421815660       -0.1447439546       -1.1253040292
 H         -3.3066632170       -0.8536826451        0.2231218561
 H         -2.5260125169        0.5539902046       -3.0116336884
 H         -0.2563893729        0.3987379798       -3.9907680009
 H          1.5213687026       -0.8284238064       -2.7982476574
 H          2.0192294833       -2.5914984755       -1.2021410132
 C          0.9101679507       -3.1874326750        0.4974268850
 C          1.8298888731       -3.7455653504        1.5410296938
 C          0.6245941226       -2.9557058557        1.9497866670
 H         -0.2050903924       -3.4857252079        2.3950246541
 H          0.7668561877       -1.9611851735        2.3420691176
 H          1.8316201598       -4.8115246781        1.7112779062
 H          2.8010727524       -3.2836538508        1.6437278233
 H          0.2701581254       -3.9009041165       -0.0132335955
