  62
        -98.93815162
 C         -0.8820411757       -1.2623821626        0.4253542731
 C         -1.3968497087       -0.0861372476        1.0176444582
 C         -2.2676978386        0.7330771683        0.1688129033
 C         -2.4780179165        0.3736952156       -1.1105081207
 C         -3.2971433492        1.1346818638       -2.1181573273
 C         -4.8020549603        0.8393869868       -2.0566696052
 C         -5.5305875590        1.4341134144       -0.8509123898
 H         -5.3081848777        2.4995752949       -0.7846895350
 H         -6.6008070469        1.3354424689       -1.0427887575
 C         -5.2021495047        0.7523421280        0.4845042752
 H         -4.7399026599       -0.2186813997        0.2924309012
 H         -6.1270923715        0.5641594544        1.0341071453
 C         -4.2869471563        1.5628294368        1.4019092956
 H         -4.7919629012        2.4837355657        1.7013741690
 H         -4.0974203881        0.9731898813        2.3022843132
 C         -2.9307992860        1.9292672524        0.7834437092
 H         -3.0541298508        2.7200737264        0.0429329763
 H         -2.2802652716        2.2923284959        1.5824250513
 H         -4.9450331367       -0.2435463095       -2.0731656997
 H         -5.2510352738        1.2477207720       -2.9650634683
 H         -3.1277568305        2.2049564371       -1.9935315029
 H         -2.9241285777        0.8406771711       -3.1018927372
 O         -1.9394974340       -0.7479730189       -1.6540764407
 C         -1.1313407836       -1.5939281280       -0.9075025233
 O         -0.7167291082       -2.5853759924       -1.5350634666
 H          1.4808521252       -0.1409670907        0.4913801909
 C          1.9285529225       -1.0540117964        0.1251954754
 C          1.3360162351       -2.2733797825        0.4512651324
 C          1.9407950186       -3.4281736791       -0.0249790632
 C          3.0739574702       -3.3529343210       -0.8201605215
 C          3.6150801636       -2.1369323537       -1.1875628431
 C          3.0229288159       -0.9713779418       -0.7142472859
 N          3.5135433869        0.2966074220       -1.0637606860
 S          2.4210987207        1.5409495662       -1.3233570398
 O          1.1613983128        1.0669419916       -1.8482930007
 O          3.1426883625        2.4779361099       -2.1616300819
 C          2.2047281199        2.2737745592        0.2837088538
 C          0.9420074242        2.6484112069        0.6957499888
 C          0.7931132989        3.2484716272        1.9359455642
 C          1.9036172238        3.4619988592        2.7370916593
 C          3.1664234579        3.0836590428        2.3064297999
 C          3.3227127099        2.4860975344        1.0665248849
 H          4.2860317081        2.1777218229        0.6963425757
 H          4.0272813968        3.2507004158        2.9335937229
 H          1.7812079217        3.9243903663        3.7037828932
 H         -0.1896267745        3.5355051493        2.2738074183
 H          0.1004733685        2.4448938798        0.0508476280
 H          4.2522486497        0.2932024618       -1.7522472025
 H          4.4731503355       -2.0848188864       -1.8402047308
 H          3.5238789463       -4.2647799168       -1.1833050154
 H          1.5317047698       -4.3998795221        0.1822474211
 C          0.0614821115       -2.1340890970        1.2482313438
 H          0.3064057084       -1.5142424696        2.1279103972
 C         -0.7001923634       -3.3317227750        1.7917789679
 C         -0.9561236076       -4.6079827442        1.0534000524
 C         -0.0816271439       -4.6093936789        2.2734042415
 H         -0.4815126620       -5.0483037731        3.1756902574
 H          0.9816891601       -4.7429449386        2.1634556039
 H         -1.9424685767       -5.0426076658        1.1337726598
 H         -0.5245167116       -4.7186557592        0.0721144937
 H         -1.5354922853       -2.9672550793        2.3865962667
 O         -1.1309673167        0.2686740792        2.1984552415
