  62
        -98.93514804
 C          1.6050990843        1.2588767323       -0.5485746880
 C          1.8509015858       -0.0448615609       -0.0614151106
 C          3.2665912477       -0.4191523633        0.1293849008
 C          4.2263287285        0.4715319407       -0.1785941605
 C          5.7230682343        0.3251606859       -0.0661768100
 C          6.3242897117       -1.0024613069       -0.5527725166
 C          6.8530312963       -1.8822775451        0.5813356158
 H          7.6137294500       -2.5538604647        0.1769418268
 H          7.3431679891       -1.2421490059        1.3179495849
 C          5.8015489025       -2.7427891345        1.2797805882
 H          5.4923924874       -3.5487049072        0.6107044011
 H          6.2775483873       -3.2058915060        2.1473832139
 C          4.5497870567       -1.9969403780        1.7468408048
 H          4.8171785115       -1.0300557768        2.1716073950
 H          4.0937332435       -2.5810491596        2.5489964662
 C          3.4952451458       -1.8137291778        0.6451806124
 H          3.7224248533       -2.4693158905       -0.2003491711
 H          2.5160210742       -2.1307486353        1.0173644558
 H          5.5902966882       -1.5468407993       -1.1447027516
 H          7.1605814368       -0.7664997621       -1.2128768336
 H          6.1325281919        1.1534442880       -0.6489631796
 H          6.0119198999        0.5041753706        0.9725498494
 O          3.9381116901        1.7227087626       -0.6420980914
 C          2.6375283597        2.1503079025       -0.8317694629
 O          2.5328440422        3.3231406214       -1.2457167784
 H         -2.2653367335        0.5611391061       -0.2643273918
 C         -1.8187939520        0.9946423685        0.6130348311
 C         -0.5941763124        1.6352949222        0.5244567932
 C         -0.0571508750        2.2115638915        1.6731187079
 C         -0.7252283096        2.1319042896        2.8791807972
 C         -1.9401714777        1.4746759107        2.9676604897
 C         -2.4871965814        0.8997237063        1.8268125757
 N         -3.6871352750        0.1881750468        1.8996107725
 S         -4.6599282482       -0.1152232587        0.5859275411
 O         -4.8550499066        1.0653482329       -0.2236509651
 O         -5.8596575567       -0.6854376784        1.1610347110
 C         -3.7990982833       -1.3620688940       -0.3496448992
 C         -3.8519938898       -1.3110944870       -1.7285653322
 C         -3.1904652432       -2.2820588983       -2.4627576654
 C         -2.4925963893       -3.2845584847       -1.8073070405
 C         -2.4549645947       -3.3257319410       -0.4222421361
 C         -3.1155002223       -2.3583074756        0.3174270050
 H         -3.0953969498       -2.3581514643        1.3944242296
 H         -1.9054402796       -4.1031131689        0.0835573819
 H         -1.9713189663       -4.0358141104       -2.3796004073
 H         -3.2169346584       -2.2509303713       -3.5405237529
 H         -4.3976374204       -0.5062298461       -2.1957916112
 H         -4.1767470972        0.2115172259        2.7800257843
 H         -2.4572402233        1.4021129200        3.9121641180
 H         -0.2965087314        2.5829896127        3.7616011007
 H          0.8962175458        2.7186309122        1.6058747769
 C          0.1780831922        1.7270195067       -0.7689255924
 H          0.2449903618        2.7874200512       -1.0535586820
 C         -0.4516188228        0.9532060052       -1.9085631031
 C         -1.5462093925        1.5693646971       -2.7247877038
 C         -0.1814907791        1.3876799529       -3.3164261578
 H         -0.0435649831        0.6296966334       -4.0725166719
 H          0.4386684009        2.2615006581       -3.4555609016
 H         -1.8622382851        2.5687687910       -2.4658537568
 H         -2.3468697602        0.9358213134       -3.0747588156
 H         -0.4967399267       -0.1125877240       -1.7139533294
 O          0.9344949444       -0.8641893311        0.2074566437
