  62
        -98.93471897
 C          2.6496960096        0.9681316579        0.7491644910
 C          2.9303887388       -0.3010439385        1.3181956785
 C          4.2540431820       -0.8686646752        1.0362549451
 C          5.1199408624       -0.1656548765        0.2841746734
 C          6.4828386226       -0.6408024970       -0.1268896462
 C          6.4316206659       -1.3771783593       -1.4728569388
 C          5.3402926090       -2.4448475823       -1.5519372277
 H          4.3621659481       -1.9598884890       -1.5070650537
 H          5.4183906652       -2.9173850962       -2.5335481681
 C          5.4232807544       -3.5197714807       -0.4590766651
 H          5.2778314982       -4.4989817919       -0.9200938128
 H          6.4178758184       -3.5169868273       -0.0116179191
 C          4.3713041338       -3.3861897594        0.6436835588
 H          4.3783982667       -4.3068216196        1.2333192610
 H          3.3791810239       -3.2929892399        0.1943649196
 C          4.5703635539       -2.2178230730        1.6173913187
 H          3.8734415553       -2.3559220525        2.4491884173
 H          5.5876120129       -2.2381048027        2.0137445223
 H          7.4056417286       -1.8359055574       -1.6526878697
 H          6.2502529242       -0.6439368350       -2.2621340864
 H          6.8799774631       -1.2981859852        0.6441607483
 H          7.1357024013        0.2283744436       -0.2229936698
 O          4.8261849713        1.0535341206       -0.2302596199
 C          3.5836236845        1.6479445647       -0.0341364615
 O          3.4669986582        2.7507729378       -0.5975883593
 O          2.1070536031       -0.9263970215        2.0399069283
 C          1.2728013969        1.5413499820        1.0323848982
 C          0.2913973661        1.1214101191       -0.0327673311
 C          0.5639853662        1.3175418841       -1.3829352286
 C         -0.3506246442        0.9283642568       -2.3447503191
 C         -1.5460851714        0.3310706174       -1.9849125046
 C         -1.8263464224        0.1257983601       -0.6407004631
 C         -0.9101766688        0.5279035971        0.3244473529
 H         -1.1255361731        0.3572332718        1.3707137097
 N         -3.0251245108       -0.5065933045       -0.2645705843
 S         -4.4452652188       -0.0062663612       -1.0333118499
 O         -4.5074911523       -0.6287028661       -2.3314190851
 O         -4.5305378101        1.4371816173       -1.0191745041
 C         -5.6751659118       -0.7181101299        0.0405735157
 C         -5.9933506781       -2.0543412947       -0.1116522560
 C         -6.9290246150       -2.6203042485        0.7394045388
 C         -7.5260274193       -1.8458227919        1.7232278095
 C         -7.1972007256       -0.5058369951        1.8626429325
 C         -6.2615108442        0.0666336619        1.0152876584
 H         -5.9821382414        1.1060252792        1.0817467233
 H         -7.6652995975        0.0939644629        2.6265027341
 H         -8.2544450211       -2.2886379538        2.3840132637
 H         -7.1894213797       -3.6610235552        0.6330784719
 H         -5.5099372419       -2.6145585016       -0.8948066433
 H         -3.1469853501       -0.5216141590        0.7391894058
 H         -2.2653043083        0.0264967512       -2.7278660284
 H         -0.1301573522        1.0904652255       -3.3895350361
 H          1.4957064515        1.7830123750       -1.6683397015
 H          0.9611806139        1.0579985806        1.9722390005
 C          1.2769277992        3.0428639016        1.2807561294
 C          0.6921481783        4.0466539460        0.3380578382
 C         -0.0006992174        3.7472843129        1.6313790488
 H          0.0138570334        4.4900783012        2.4143598158
 H         -0.9144658729        3.1737168965        1.5809789784
 H          1.2105075208        4.9866146644        0.2267264089
 H          0.2405489896        3.6918896747       -0.5749951016
 H          2.1662682012        3.3575510939        1.8173653933
