  62
        -98.94463938
 C          1.6881167299        1.4483698195        0.0108261795
 C          1.6155136898        0.2988716292       -0.8138690800
 C          2.9039653197       -0.3167357608       -1.1689332601
 C          4.0464852198        0.2201484194       -0.7047895305
 C          5.4171720698       -0.3471688905       -0.9310079506
 C          5.8037819501       -1.3209751201        0.1910511897
 C          4.7323147403       -2.3674302900        0.4987771603
 H          5.1275040705       -3.0169765597        1.2829188605
 H          3.8508700603       -1.8694043300        0.9102212603
 C          4.3127421301       -3.2199819905       -0.7068783193
 H          4.2642643502       -4.2659445904       -0.3966682688
 H          5.0672346599       -3.1491202808       -1.4913355995
 C          2.9431761599       -2.8655807909       -1.2894968391
 H          2.6559124198       -3.6566667812       -1.9877930487
 H          2.1944767701       -2.8506218206       -0.4923288289
 C          2.8663213996       -1.5348624312       -2.0482500196
 H          3.6581384295       -1.4933750414       -2.7991128198
 H          1.9011667595       -1.5051751615       -2.5623045194
 H          5.9897478203       -0.7451860897        1.1006149894
 H          6.7320690801       -1.8213704001       -0.0902694004
 H          5.4411107696       -0.8561304009       -1.8924832104
 H          6.1326468597        0.4766023095       -0.9471299111
 O          4.0769360799        1.3276803697        0.0790138490
 C          2.9065038099        1.9567856398        0.4667276390
 O          3.0789987000        2.9485338601        1.2039902986
 H         -1.8990709700        0.6991263093        0.2940928806
 C         -1.4207901398        0.5980060297        1.2515623806
 C         -0.2456490998        1.2821341399        1.5145552200
 C          0.3491636905        1.1345057705        2.7658368400
 C         -0.2240817492        0.3251248808        3.7269453204
 C         -1.3916488492       -0.3681951394        3.4540671309
 C         -1.9872315295       -0.2362357199        2.2068021410
 N         -3.1794589695       -0.9136744101        1.8935130616
 S         -3.2029743598       -1.8633446407        0.5020330219
 O         -4.3137778896       -2.7698707607        0.7144322326
 O         -1.9203117998       -2.4847204907        0.2726617519
 C         -3.6310001102       -0.7363632812       -0.8060715484
 C         -2.7194476304       -0.4480234215       -1.8023539687
 C         -3.0874777707        0.4403586080       -2.8016162290
 C         -4.3479861008        1.0173608579       -2.7882375589
 C         -5.2517008705        0.7121343383       -1.7811876886
 C         -4.8926994402       -0.1747472913       -0.7794190183
 H         -5.5646302500       -0.4458251511        0.0177198419
 H         -6.2304738505        1.1639807482       -1.7737490285
 H         -4.6252951710        1.7101539376       -3.5673526491
 H         -2.3808919809        0.6803754378       -3.5806114292
 H         -1.7351368304       -0.8889343115       -1.7635108788
 H         -3.5691769793       -1.4334502399        2.6679049119
 H         -1.8362683490       -1.0088313091        4.2012006713
 H          0.2437910610        0.2251377512        4.6950320003
 H          1.2696873705        1.6644993606        2.9702302395
 C          0.4306744999        2.1598013096        0.4882020895
 H          0.7787804400        3.0659884998        1.0033843591
 C         -0.4680380504        2.5639752891       -0.6606845204
 C         -1.5664745404        3.5549067091       -0.4227206105
 C         -0.3634551906        3.9470589389       -1.2255906110
 H         -0.4730732909        4.0768429884       -2.2916375710
 H          0.3549130294        4.6177938591       -0.7767554514
 H         -1.6644453202        3.9597142295        0.5732190093
 H         -2.5054158305        3.4135489188       -0.9360506303
 H         -0.6576348805        1.7581926588       -1.3579425701
 O          0.5413826897       -0.1917045911       -1.2476080096
