  62
        -98.93862905
 C         -2.7998282939       -0.1171066021        0.0799962096
 C         -2.1332255405       -0.8609522895        1.0842045020
 C         -1.8086498940       -2.2550513791        0.7440031050
 C         -2.1451964907       -2.7431129845       -0.4620544900
 C         -1.8512153964       -4.1349661302       -0.9406401022
 C         -0.5200736102       -4.2118690275       -1.7000110930
 C          0.6585260322       -3.5620277747       -0.9742675012
 H          0.5173552958       -2.4784538327       -0.9478499812
 H          1.5483896260       -3.7454790145       -1.5818279415
 C          0.8999128595       -4.0802578632        0.4504515294
 H          1.9731602799       -4.2309984994        0.5862440775
 H          0.4177590206       -5.0501101796        0.5806578560
 C          0.4371847132       -3.1278866529        1.5551565754
 H          0.7920630377       -2.1178704410        1.3315760806
 H          0.8965775120       -3.4434847013        2.4958761258
 C         -1.0786939140       -3.0599005613        1.7821243400
 H         -1.2531948790       -2.5498921516        2.7340953317
 H         -1.4890674922       -4.0692644827        1.8519150584
 H         -0.6405373566       -3.7114389394       -2.6638077497
 H         -0.2965368253       -5.2641099256       -1.8889183157
 H         -1.8311025542       -4.8073795508       -0.0848402802
 H         -2.6564207044       -4.4406011607       -1.6114988060
 O         -2.7893330830       -2.0028134816       -1.4009279699
 C         -3.1009159060       -0.6760391313       -1.1651806149
 O         -3.6592273238       -0.1043291376       -2.1242743066
 H         -0.6205144326        1.1495478925        1.0936975425
 C         -0.7152541292        1.8993868710        0.3221270145
 C         -1.9679327502        2.1769570761       -0.2074799840
 C         -2.0660118966        3.1497796867       -1.1942458039
 C         -0.9358198721        3.8072814248       -1.6521404049
 C          0.3160133884        3.4932538944       -1.1520340082
 C          0.4179352707        2.5329157722       -0.1563598992
 N          1.7055495043        2.1269448184        0.3017914172
 S          2.2757376323        0.9357203935       -0.7697350478
 O          2.5229288852        1.5776369218       -2.0365876800
 O          1.3694183054       -0.1915876857       -0.7915968637
 C          3.8225018449        0.4719040026       -0.0148745760
 C          4.8538957945        1.3915668912       -0.0195324789
 C          6.0533208095        1.0533785017        0.5858167298
 C          6.2000311573       -0.1908153692        1.1817655256
 C          5.1558246724       -1.1028441397        1.1768725897
 C          3.9522582741       -0.7703198268        0.5744155506
 H          3.1144710808       -1.4490403891        0.5428508182
 H          5.2718998563       -2.0699410285        1.6389745098
 H          7.1348752216       -0.4522391322        1.6518701547
 H          6.8683822077        1.7588781945        0.5908752603
 H          4.6953423864        2.3419822883       -0.5009035026
 H          1.6235525809        1.6834618853        1.2103921096
 H          1.2094610699        3.9575161424       -1.5358961895
 H         -1.0288117144        4.5547204332       -2.4254468327
 H         -3.0320099500        3.3672607157       -1.6266565916
 C         -3.1546753892        1.3564918048        0.2295925914
 H         -3.9674544612        1.5356322788       -0.4917165594
 C         -3.6780699488        1.7184074794        1.6119543389
 C         -2.9466655559        2.6134704752        2.5627723146
 C         -4.1792022389        3.1085022192        1.8719653239
 H         -5.0841427545        3.2337364919        2.4466369012
 H         -4.0506137514        3.8350746132        1.0836644583
 H         -1.9947323159        3.0175290895        2.2557145739
 H         -2.9979762730        2.3723381754        3.6134666412
 H         -4.2432737135        0.9062118520        2.0565087575
 O         -1.8151588249       -0.4061353741        2.2148728660
