  62
        -98.94515250
 C          0.9872549600        1.2570760301        0.4646370704
 C          1.5347356304        0.7228778301       -0.7294455594
 C          2.3817246604       -0.4690320498       -0.5644937092
 C          2.5855441400       -0.9930202998        0.6564429209
 C          3.3961105700       -2.2205672698        0.9737230211
 C          4.9037356699       -1.9592452997        1.0946123117
 C          5.6272750604       -1.6882328696       -0.2250956781
 H          5.3919623507       -2.4801492696       -0.9370045882
 H          6.6982581603       -1.7424385396       -0.0198459077
 C          5.3146568705       -0.3219456496       -0.8513859382
 H          6.2439338706        0.1504980704       -1.1775356078
 H          4.8702201802        0.3318709903       -0.0975835583
 C          4.3860877709       -0.3776741097       -2.0648920185
 H          4.8762052312       -0.9168440496       -2.8787696783
 H          4.1995172810        0.6448427303       -2.4030401085
 C          3.0295964309       -1.0389396098       -1.7894714790
 H          3.1486648309       -2.1183391197       -1.6903589989
 H          2.3660200811       -0.8429187798       -2.6363040492
 H          5.3511986698       -2.8439351997        1.5533774518
 H          5.0584846496       -1.1177042797        1.7736486517
 H          3.0350109797       -2.5939487998        1.9344756510
 H          3.2158727903       -2.9841551998        0.2160176111
 O          2.0392802596       -0.4548558899        1.7787918707
 C          1.2416537996        0.6767182101        1.7100475205
 O          0.8224971292        1.0679146600        2.8174968603
 H         -0.9516703894        0.5316173600       -1.1536938303
 C         -1.7141589097        1.0921771999       -0.6376342405
 C         -1.3695260800        2.1141534599        0.2329737896
 C         -2.3884927503        2.8292500499        0.8549445993
 C         -3.7149900102        2.5323234798        0.6044653588
 C         -4.0541459098        1.4993270498       -0.2514713513
 C         -3.0450627396        0.7742541999       -0.8722192610
 N         -3.3478136292       -0.2964736001       -1.7305279611
 S         -2.4848865892       -1.7185747601       -1.5473075909
 O         -1.1964043390       -1.6235244900       -2.1818582004
 O         -3.3687345289       -2.7406395201       -2.0683658412
 C         -2.3052642398       -1.9156904401        0.2165851792
 C         -1.0562991300       -1.8366304200        0.7957367096
 C         -0.9457340704       -1.9612334301        2.1717148297
 C         -2.0826521507       -2.1558105302        2.9398720993
 C         -3.3314541405       -2.2385201402        2.3426300488
 C         -3.4468284000       -2.1171310302        0.9679678888
 H         -4.3989289498       -2.1897002802        0.4679723285
 H         -4.2119725307       -2.3940089403        2.9448295185
 H         -1.9897186911       -2.2429017802        4.0108324093
 H          0.0239556194       -1.8855424300        2.6379978500
 H         -0.1947210898       -1.6752502400        0.1652168699
 H         -4.3352597892       -0.4832628102       -1.8324071815
 H         -5.0884239697        1.2557178297       -0.4397327917
 H         -4.4936783704        3.0994717997        1.0905592785
 H         -2.1334658206        3.6190455099        1.5448269194
 C          0.0759405399        2.4701456700        0.4996079301
 H          0.1338561495        2.8574262500        1.5267983701
 C          0.5116672801        3.5728287001       -0.4488030697
 C          0.2307363999        5.0041248100       -0.1091415398
 C          1.6342682899        4.4817221801       -0.0515763693
 H          2.3387344102        4.7906847002       -0.8089870691
 H          2.0800649496        4.3258667001        0.9204306808
 H         -0.2636563604        5.2156329600        0.8263745300
 H         -0.0349741098        5.6775357900       -0.9093751799
 H          0.4555980705        3.2806882901       -1.4896039798
 O          1.3401855308        1.1908941002       -1.8817131295
