  62
        -98.93443352
 C         -2.3013822617       -0.5249571918        0.3113028883
 C         -3.4964829835       -0.5242921910        1.0731741076
 C         -4.5208130116        0.4721285287        0.7149152694
 C         -4.2676551445        1.3476121999       -0.2752484376
 C         -5.0903016397        2.4907742112       -0.8323146915
 C         -6.5696718738        2.6304318582       -0.4833867979
 C         -7.4694026708        1.5408710755       -1.0665415318
 H         -8.4760337080        1.6769395048       -0.6653596835
 H         -7.5219570751        1.6775985458       -2.1496580301
 C         -7.0207784699        0.1049976191       -0.8064273100
 H         -7.7386552988       -0.5627160236       -1.2906477477
 H         -6.0522042142       -0.0678364728       -1.2802846494
 C         -6.9332144704       -0.2963054720        0.6646720470
 H         -7.8875704706       -0.0994174333        1.1568945540
 H         -6.7548916570       -1.3746181292        0.7022149685
 C         -5.8153575079        0.3864904721        1.4711307758
 H         -6.1234819128        1.3691007024        1.8199674684
 H         -5.6136437791       -0.2263723584        2.3546081342
 H         -6.8986115483        3.5864244642       -0.8998155475
 H         -6.6977936242        2.6965377466        0.5930039726
 H         -4.5729661589        3.4052174672       -0.5216819158
 H         -4.9831271106        2.4326612959       -1.9202412239
 O         -3.0801127321        1.3434028332       -0.9467120347
 C         -2.0764186071        0.4189107758       -0.6902375007
 O         -1.0740842478        0.5594207933       -1.4138758919
 H          0.9102434843       -1.6225817900       -1.0329419523
 C          1.0990860001       -1.0482397436       -0.1391186976
 C          0.1022588837       -0.9124628643        0.8136356522
 C          0.3630997510       -0.1434196373        1.9440324443
 C          1.5883347040        0.4730299791        2.1124488262
 C          2.5785442310        0.3404640898        1.1548244765
 C          2.3272479373       -0.4200989227        0.0215052594
 N          3.3210187910       -0.5387191889       -0.9644461755
 S          4.8654746994       -0.9893339087       -0.4974009134
 O          5.4610618661       -1.5853705343       -1.6737371917
 O          4.8401524828       -1.8090419482        0.6924223320
 C          5.6828567980        0.5550297931       -0.1555398636
 C          6.3264292307        0.7404241234        1.0521984845
 C          6.9695236983        1.9450870461        1.2910410510
 C          6.9588245310        2.9367941720        0.3223525498
 C          6.3093613988        2.7339927058       -0.8863856254
 C          5.6652323839        1.5319216895       -1.1316366512
 H          5.1499043786        1.3355641652       -2.0571042478
 H          6.3020619185        3.5079492539       -1.6369478569
 H          7.4590539443        3.8737466833        0.5101823487
 H          7.4745968100        2.1048850509        2.2301004747
 H          6.3031182076       -0.0568276642        1.7779526247
 H          3.0222987089       -1.0410523935       -1.7873641752
 H          3.5355327903        0.8214437789        1.2764378656
 H          1.7751696687        1.0651465048        2.9955011569
 H         -0.4123879711       -0.0324437609        2.6896956586
 C         -1.2495796564       -1.5613040627        0.6649200983
 H         -1.5573353244       -1.9303002535        1.6572029879
 C         -1.2288138366       -2.7734191887       -0.2549548015
 C         -2.5009317141       -3.3145737948       -0.8334593090
 C         -1.4792137789       -2.6847756825       -1.7295994385
 H         -0.9073632278       -3.3280082785       -2.3832966864
 H         -1.6873705665       -1.7129909068       -2.1490281990
 H         -2.6349335913       -4.3849985441       -0.8743793093
 H         -3.4101340224       -2.7669385643       -0.6325904456
 H         -0.4955031185       -3.5072050802        0.0680203685
 O         -3.7006373466       -1.3236071506        2.0256754595
