  62
        -98.94087274
 C          2.3806714004        1.2785094101        0.1602202491
 C          2.2233307203       -0.1205380600       -0.0111857900
 C          3.2943287903       -0.9563459596        0.5535662305
 C          4.3222617504       -0.3898018993        1.2085499300
 C          5.4769156304       -1.1118453989        1.8480906904
 C          6.6077149003       -1.4682864595        0.8733679205
 C          6.2930518102       -2.6029218202       -0.1024628388
 H          7.2356803802       -2.8940324805       -0.5700742386
 H          5.9246626202       -3.4663511398        0.4523919218
 C          5.2905767301       -2.2317645808       -1.2042153789
 H          5.2105256702       -1.1443942709       -1.2729327296
 H          5.6606473000       -2.5864742814       -2.1687799687
 C          3.8922241801       -2.8193384806       -1.0121665384
 H          3.9398995101       -3.9088740607       -1.0739346477
 H          3.2548354901       -2.4657536711       -1.8270045286
 C          3.2228807302       -2.4344216098        0.3137764714
 H          2.1666849602       -2.7120345898        0.2602861917
 H          3.6841141503       -2.9765816993        1.1391051917
 H          6.8818837403       -0.5714504499        0.3130881899
 H          7.4723568604       -1.7630213792        1.4723175306
 H          5.8781615105       -0.4408907984        2.6106852499
 H          5.1166574304       -2.0175085086        2.3369392010
 O          4.4179189304        0.9545172708        1.3856305292
 C          3.4622039804        1.8126201306        0.8689690687
 O          3.6807760505        3.0167867307        1.1089409079
 H         -0.5803618698        0.9790887590       -1.7677975604
 C         -0.8839578297        1.1915344197       -0.7545559805
 C         -0.0185778096        1.8631459102        0.0931171190
 C         -0.4142891195        2.0938917010        1.4068706689
 C         -1.6487892895        1.6646918813        1.8567961992
 C         -2.5073337696        0.9855754908        1.0099849697
 C         -2.1124347797        0.7334935600       -0.2966066901
 N         -2.9697463098        0.0307088395       -1.1596866096
 S         -3.7398677998       -1.3463887901       -0.5880347187
 O         -2.9880406897       -2.0059951995        0.4536577716
 O         -4.0307760799       -2.1300733609       -1.7694911682
 C         -5.2718573697       -0.7191861297        0.0728549510
 C         -6.0562460998        0.0774275499       -0.7382550294
 C         -7.2539726797        0.5653470202       -0.2409444896
 C         -7.6474126796        0.2479290510        1.0506300906
 C         -6.8513027696       -0.5565439285        1.8511923511
 C         -5.6514047096       -1.0469428288        1.3596585513
 H         -4.9973143496       -1.6712788085        1.9477536316
 H         -7.1584571295       -0.8032537278        2.8548674512
 H         -8.5798712996        0.6294578813        1.4356246105
 H         -7.8759256497        1.1910194398       -0.8606195400
 H         -5.7163470698        0.2979940192       -1.7362044796
 H         -2.5652523699       -0.1435990611       -2.0686859796
 H         -3.4637197596        0.6316797711        1.3587288300
 H         -1.9443021694        1.8538787420        2.8776806891
 H          0.2660624106        2.6040286014        2.0753170085
 C          1.3601921903        2.2862459799       -0.3463345814
 H          1.6090503704        3.2246144202        0.1740521980
 C          1.4468215502        2.5828047389       -1.8363138816
 C          2.7831986002        2.7236454885       -2.5007557318
 C          1.8885036601        1.5752727683       -2.8528253210
 H          1.4051016200        1.5825290877       -3.8193383610
 H          2.1539477501        0.5884556685       -2.5084606304
 H          2.9211462901        3.5129036980       -3.2241501223
 H          3.6578187402        2.5245730988       -1.8981866518
 H          0.6761909202        3.2807111787       -2.1498335620
 O          1.2574913602       -0.6662373403       -0.6052006296
