  62
        -98.93882363
 C          1.8444310006        0.8779285601       -0.1247672706
 C          2.4048557607        0.0973776506        0.9105906597
 C          3.5414983506       -0.7730439096        0.5533163999
 C          3.9500454003       -0.8068076204       -0.7290645101
 C          5.1052339502       -1.5737035808       -1.3148102099
 C          6.4648533203       -0.9308555806       -0.9922858006
 C          6.6235164606       -0.4424874699        0.4455273191
 H          7.5714004906        0.0982864501        0.5094784386
 H          5.8286961607        0.2706659303        0.6716707789
 C          6.6400224808       -1.5386873393        1.5081191597
 H          7.4725899907       -2.2173497894        1.3093486000
 H          6.8280514510       -1.0559103387        2.4705704194
 C          5.3603961407       -2.3672498291        1.6335829605
 H          5.4346779909       -2.9425940986        2.5612289908
 H          5.2838963105       -3.0920182096        0.8274810509
 C          4.0766191908       -1.5489947290        1.7330900303
 H          4.1774061710       -0.8237086086        2.5485100198
 H          3.2631337808       -2.2174777888        2.0416858308
 H          6.5932773502       -0.0685292910       -1.6509594511
 H          7.2508576702       -1.6516033108       -1.2236526303
 H          5.0742836102       -2.6071174106       -0.9821118593
 H          4.9672007800       -1.5697652113       -2.3983103199
 O          3.3495880702       -0.0679261009       -1.7050191304
 C          2.2910015503        0.7826437693       -1.4423248807
 O          1.8474451401        1.3789087088       -2.4411496609
 O          1.9756819510        0.1222668813        2.0973103598
 C          0.6879609507        1.8067893303        0.1984054491
 C         -0.5573618395        1.3378903900       -0.5129500404
 C         -1.3481722696        2.1565472596       -1.3070767307
 C         -2.4755931298        1.6497077693       -1.9320579202
 C         -2.8449994598        0.3279064094       -1.7697399594
 C         -2.0701270397       -0.4953002201       -0.9611972491
 C         -0.9417702295        0.0131552201       -0.3384645396
 H         -0.3382793694       -0.6301066696        0.2900704206
 N         -2.4531991497       -1.8340995100       -0.7663781683
 S         -4.0610754697       -2.1225824397       -0.3968104578
 O         -4.0599513596       -3.3393305893        0.3850826229
 O         -4.8377413799       -2.1578008404       -1.6108791176
 C         -4.5642755194       -0.7312730991        0.6010665416
 C         -5.5837937294        0.0930685407        0.1709974413
 C         -5.9292981192        1.1905275411        0.9434086608
 C         -5.2485034790        1.4463053217        2.1232735205
 C         -4.2288319189        0.6061302519        2.5441699207
 C         -3.8814446191       -0.4941418285        1.7777703213
 H         -3.0947339491       -1.1668524584        2.0806948815
 H         -3.6991195287        0.8055814924        3.4619634205
 H         -5.5128203188        2.3046607121        2.7203896701
 H         -6.7233092192        1.8440894810        0.6202603206
 H         -6.0823064396       -0.1398636698       -0.7557030385
 H         -1.8405330096       -2.3477395397       -0.1503956081
 H         -3.7128846799       -0.0838096808       -2.2589274590
 H         -3.0741490699        2.2945121890       -2.5569401904
 H         -1.0776373396        3.1897355295       -1.4470381513
 H          0.5204558409        1.6934261210        1.2798675892
 C          1.0553545207        3.2462661202       -0.0892342618
 C          0.3826831309        4.3560547406        0.6604122077
 C          1.8145830110        4.0195681207        0.9456593076
 H          2.5831332709        4.7031029305        0.6173078271
 H          2.0484494211        3.5140182612        1.8713732979
 H          0.1684227209        5.2757894403        0.1376434973
 H         -0.3577508890        4.0834532411        1.3968580480
 H          1.3177626805        3.4113452796       -1.1278952119
