  62
        -98.93349420
 C         -1.9575232401       -0.0199934297       -0.5229114098
 C         -2.8288357438        0.4908597904        0.4691094257
 C         -4.1426751792       -0.1728586583        0.5840304193
 C         -4.4298769228       -1.2260925828       -0.1980290019
 C         -5.6764697517       -2.0750987993       -0.2141234281
 C         -7.0277112662       -1.3537191961       -0.1149948243
 C         -7.0726772359        0.0352092942       -0.7685409930
 H         -7.9363107211        0.0857501496       -1.4343431398
 H         -6.1816102003        0.1905532960       -1.3792482719
 C         -7.1984232784        1.1704980255        0.2503736254
 H         -7.9292289798        0.8804016199        1.0084640181
 H         -7.5889633608        2.0559347077       -0.2571319739
 C         -5.8978774597        1.5806062029        0.9402051697
 H         -6.1449658437        2.3072436758        1.7178644982
 H         -5.2439260026        2.0870317202        0.2252187649
 C         -5.0942708062        0.4339397286        1.5750483155
 H         -5.7517081073       -0.3137774850        2.0117016226
 H         -4.4733819058        0.8584784826        2.3684943592
 H         -7.3163935805       -1.2626048803        0.9312249667
 H         -7.7664117708       -2.0028159836       -0.5883815897
 H         -5.6272008712       -2.6318580232       -1.1531218980
 H         -5.6005644781       -2.8058427593        0.5964620256
 O         -3.5447365860       -1.7090350175       -1.1164826731
 C         -2.3077896429       -1.1228725869       -1.3048075166
 O         -1.6152520922       -1.6619021330       -2.1926586165
 H          1.6007007007       -0.8656537982       -1.5208097875
 C          1.5094716953       -0.7889541812       -0.4455732409
 C          0.4374913455       -0.0989347544        0.0999483265
 C          0.3232936106       -0.0283646102        1.4853980306
 C          1.2634385546       -0.6343776560        2.2984012061
 C          2.3337135753       -1.3210258383        1.7503154755
 C          2.4523607578       -1.4010121481        0.3700401482
 N          3.5585842775       -2.0776064975       -0.1894143102
 S          5.0504038767       -1.3854824700        0.1479505524
 O          5.9599573728       -1.9144866379       -0.8424157286
 O          5.3867933046       -1.6376331821        1.5253442322
 C          4.7767663793        0.3569430385       -0.1134014142
 C          4.8357797703        0.8437137345       -1.4042952700
 C          4.5231560425        2.1736676659       -1.6342573437
 C          4.1443429772        2.9860240930       -0.5761588816
 C          4.0903344909        2.4819313925        0.7139329909
 C          4.4082447117        1.1542972761        0.9515527701
 H          4.3801276518        0.7253496569        1.9395951064
 H          3.7946201584        3.1169016684        1.5333592428
 H          3.8857909478        4.0168631760       -0.7582245866
 H          4.5663884396        2.5697803871       -2.6362981379
 H          5.1355021109        0.1792407541       -2.1991710983
 H          3.4703800604       -2.2193237258       -1.1861173831
 H          3.0825957598       -1.7891257932        2.3687716842
 H          1.1632197093       -0.5721276738        3.3714934883
 H         -0.5098014751        0.5096685327        1.9117424649
 C         -0.5777423069        0.5559441985       -0.7995838947
 H         -0.3483133535        0.2518218936       -1.8327023817
 C         -0.5365268628        2.0784288914       -0.7502338943
 C          0.3568099491        2.8544529253        0.1672236352
 C          0.6610126927        2.7983474990       -1.2970370482
 H          0.5055723635        3.6810365112       -1.8982991604
 H          1.5007335387        2.1932574325       -1.6058939327
 H          1.0021621786        2.3100517130        0.8382706690
 H         -0.0346746219        3.7700499674        0.5831983617
 H         -1.5040529748        2.5205724207       -0.9602523696
 O         -2.5451712882        1.4458110840        1.2350317002
