  62
        -98.94016103
 C         -0.4908105731       -1.8022418191        0.8285852544
 C          0.5427748102       -2.4995793890        0.1513762882
 C          1.9163247569       -2.0571813133        0.4115624944
 C          2.1334866013       -1.0606171821        1.2869501287
 C          3.4668398157       -0.4657820684        1.6515572288
 C          4.1589333936        0.3108704999        0.5129347987
 C          5.1932786603       -0.5122549955       -0.2653832794
 H          6.0580279614        0.1199287560       -0.4776924582
 H          5.5468449111       -1.3252826603        0.3703817543
 C          4.7176126085       -1.0831514323       -1.6049954454
 H          5.4356824244       -1.8446751740       -1.9187389182
 H          4.7297523009       -0.2881966479       -2.3546164776
 C          3.3133899634       -1.6895125285       -1.6156873449
 H          2.5678277967       -0.8889801567       -1.6150756472
 H          3.1824661220       -2.2267015288       -2.5579380372
 C          3.0079230955       -2.6376362936       -0.4383056901
 H          2.6386196023       -3.5927175263       -0.8177145369
 H          3.9042870980       -2.8223862002        0.1521391329
 H          3.4022105415        0.7066683082       -0.1672522176
 H          4.6695400630        1.1635236103        0.9648075650
 H          4.1276717690       -1.2583132563        2.0088920450
 H          3.2730998013        0.2112712763        2.4859300799
 O          1.1252035192       -0.4683513343        1.9759258358
 C         -0.2080314613       -0.7643004816        1.7165918528
 O         -1.0013647875       -0.0399236797        2.3486190338
 O          0.3190097850       -3.4491522466       -0.6484683569
 C         -1.9065236719       -2.1211389798        0.3807524886
 C         -2.2207607633       -1.2942934217       -0.8477836014
 C         -2.9136408768       -1.8252577994       -1.9290527234
 C         -3.1202624897       -1.0691174966       -3.0696954674
 C         -2.6086968643        0.2127714300       -3.1709064514
 C         -1.9191096058        0.7530955035       -2.0920504312
 C         -1.7695033170        0.0138496721       -0.9300255772
 H         -1.2483386433        0.4545274338       -0.0955984489
 N         -1.3535265560        2.0359247816       -2.1398994727
 S          0.1149236365        2.3008808796       -1.3728810750
 O          0.6681600744        3.4560454416       -2.0528502119
 O          0.9505663547        1.1215279222       -1.3802501312
 C         -0.2968571967        2.7763314282        0.2909430133
 C         -1.5332732375        3.3231014642        0.5675778852
 C         -1.8113238527        3.7197555534        1.8654039230
 C         -0.8538867066        3.5704675355        2.8560688158
 C          0.3853742248        3.0274382292        2.5594401988
 C          0.6697860033        2.6282297002        1.2642968534
 H          1.6159557275        2.1841837133        0.9973569478
 H          1.1268496910        2.9009876307        3.3320230723
 H         -1.0764970789        3.8709638648        3.8678316823
 H         -2.7774062902        4.1365786759        2.1014438365
 H         -2.2604895897        3.4134126684       -0.2224605357
 H         -1.3992753786        2.4987478117       -3.0360365651
 H         -2.7314978815        0.7860580962       -4.0770420766
 H         -3.6590694993       -1.4931082366       -3.9033777871
 H         -3.2699298322       -2.8432669138       -1.8834324807
 H         -1.8936750477       -3.1760144676        0.0723237823
 C         -2.9758026952       -1.9417514499        1.4379619194
 C         -4.2375999352       -2.7452895273        1.3497762004
 C         -3.2316268495       -3.0443346354        2.4194730640
 H         -3.4605407198       -2.7783718198        3.4400255212
 H         -2.6387450904       -3.9425708302        2.3256523948
 H         -5.1657906900       -2.2744262646        1.6340962474
 H         -4.3322011011       -3.4487608954        0.5367770965
 H         -3.0482123412       -0.9262658962        1.8040243665
