  62
        -98.93429967
 C          2.5573583386        1.3962331682        0.2422288425
 C          2.7591263697        0.4788695166       -0.8162361016
 C          3.6137579556       -0.6861750172       -0.5186726169
 C          4.1443468236       -0.8302263966        0.7067502910
 C          5.0731892345       -1.9059812920        1.2114512602
 C          4.7623089833       -3.3564713096        0.8179381505
 C          3.2690531889       -3.6860014212        0.6761015448
 H          3.0466247275       -4.5842668066        1.2552317795
 H          2.6621131800       -2.8775375132        1.0888921327
 C          2.8485625585       -3.9480606609       -0.7721266540
 H          3.6064749240       -4.5722147794       -1.2507725241
 H          1.9123564952       -4.5121641680       -0.7681753783
 C          2.6164447401       -2.7003764987       -1.6231347955
 H          2.4241731530       -3.0243595624       -2.6490483449
 H          1.7144560782       -2.1861389511       -1.2770535315
 C          3.7682445736       -1.6809948948       -1.6331062347
 H          3.7032431907       -1.1088842601       -2.5625425099
 H          4.7338364812       -2.1791119536       -1.5982190546
 H          5.2680289193       -3.5986047088       -0.1157386569
 H          5.2024033496       -3.9923741325        1.5878072257
 H          5.0513933879       -1.8098048679        2.2995678812
 H          6.0876091613       -1.6575968036        0.8860682277
 O          3.9161922723        0.0724195253        1.7020411671
 C          3.1199029803        1.1845781112        1.5038038426
 O          2.9970596201        1.9100672094        2.5106949964
 O          2.2697519377        0.6078396497       -1.9693109381
 C          1.7014831875        2.6484148519        0.1117580142
 C          0.2541984400        2.2899996882        0.3315116530
 C         -0.4719606435        2.8272052069        1.3869384079
 C         -1.7846808877        2.4439755969        1.6039821045
 C         -2.3969459258        1.5198917805        0.7762671886
 C         -1.6766629124        0.9734717097       -0.2782283387
 C         -0.3651825403        1.3634744711       -0.4975365182
 H          0.1950142338        0.9340897572       -1.3157117753
 N         -2.2877246078        0.0210733992       -1.1200984452
 S         -2.8330324799       -1.3801401426       -0.3648361074
 O         -2.0757556653       -1.6614034157        0.8342445613
 O         -2.8221306977       -2.4023961799       -1.3883379597
 C         -4.5204227080       -0.9924752712        0.0503076117
 C         -5.3732071243       -0.6320224764       -0.9748429424
 C         -6.6896775078       -0.3231942502       -0.6723730330
 C         -7.1289918937       -0.3816260899        0.6420780169
 C         -6.2612854069       -0.7487655752        1.6592597429
 C         -4.9425463897       -1.0581774566        1.3634863919
 H         -4.2295940604       -1.3418410469        2.1212667491
 H         -6.6045348169       -0.7938597083        2.6803501498
 H         -8.1538657071       -0.1397322357        0.8753299090
 H         -7.3674853988       -0.0374311147       -1.4605044797
 H         -4.9912409645       -0.6025426798       -1.9816153662
 H         -1.7099439226       -0.2222498708       -1.9133810751
 H         -3.4170789112        1.2144105256        0.9434542772
 H         -2.3363756423        2.8679166527        2.4291033837
 H          0.0061543275        3.5329228470        2.0505640055
 H          2.0153073259        3.2936344474        0.9464173573
 C          1.9606912471        3.4077623831       -1.1842010549
 C          0.8933679192        3.7328695772       -2.1832297977
 C          1.4675729882        4.8176851474       -1.3264637051
 H          2.1173969029        5.5518279724       -1.7779973551
 H          0.8477947209        5.2048298257       -0.5315362686
 H          1.1623013038        3.6978504377       -3.2281712031
 H         -0.1156960789        3.4085574907       -1.9827109986
 H          2.9439720178        3.1972683180       -1.5907824957
