  62
        -98.94025803
 C          0.9742317107        1.4137221294       -0.1288748615
 C          1.7577584908        0.8139454197        0.8891193787
 C          2.6595441904       -0.2818766508        0.4937109890
 C          2.6897278800       -0.6725688614       -0.7937950608
 C          3.4486609195       -1.7889081520       -1.4807555004
 C          4.6013741395       -2.4976882320       -0.7742466303
 C          5.8398327998       -1.6307853222       -0.5453333410
 H          6.5459663797       -2.1972106421        0.0655456492
 H          6.3134115296       -1.4426432828       -1.5122521912
 C          5.5869377203       -0.2762741418        0.1123284184
 H          6.5466431805        0.2420907879        0.1884442780
 H          4.9459189203        0.3292484280       -0.5318639618
 C          4.9769298006       -0.3311865810        1.5112937086
 H          5.5983873605       -0.9529066008        2.1585988987
 H          4.9857289609        0.6850165492        1.9143863781
 C          3.5293523604       -0.8457987405        1.5814608291
 H          3.0962057107       -0.5046972099        2.5264691690
 H          3.5024309101       -1.9330684805        1.5786841397
 H          4.2592678895       -2.9327114014        0.1601108800
 H          4.8962042491       -3.3296838824       -1.4194956299
 H          2.6933670693       -2.5362157519       -1.7505734999
 H          3.8107671395       -1.3674265726       -2.4241269907
 O          1.9126770100       -0.0714684217       -1.7408759309
 C          1.0527536203        0.9815985687       -1.4523484413
 O          0.4520232003        1.4141596384       -2.4543504214
 O          1.7062261311        1.1818580003        2.0928163485
 C          0.0522908411        2.5356488999        0.3108640581
 C         -1.3241518389        2.0200956705        0.6626590087
 C         -1.9324678886        2.4009744312        1.8534946686
 C         -3.2008653686        1.9526141117        2.1731650291
 C         -3.8772419291        1.0998835415        1.3201571596
 C         -3.2764413094        0.7077856708        0.1294828297
 C         -2.0117749593        1.1764951202       -0.1984828508
 H         -1.5687785696        0.8776688196       -1.1361239107
 N         -3.9363719098       -0.1724826595       -0.7471809097
 S         -3.0934793603       -1.5040625700       -1.3125789592
 O         -2.1929666405       -1.1284301208       -2.3701469696
 O         -4.1267907407       -2.4545928999       -1.6674029685
 C         -2.1914907902       -2.0922288896        0.1085680109
 C         -2.8953077302       -2.7372943489        1.1072650513
 C         -2.2202706901       -3.1496795885        2.2440034314
 C         -0.8606958500       -2.9041581188        2.3655290810
 C         -0.1680394700       -2.2583907095        1.3536013006
 C         -0.8384988601       -1.8463417899        0.2127941205
 H         -0.3331213002       -1.3394203905       -0.5946407899
 H          0.8872693800       -2.0571416898        1.4469764202
 H         -0.3333427699       -3.2173852286        3.2525396311
 H         -2.7533962901       -3.6567498180        3.0318474218
 H         -3.9486890503       -2.9190769386        0.9686801816
 H         -4.8561191799       -0.4494094791       -0.4332234194
 H         -4.8633826991        0.7391484619        1.5693433000
 H         -3.6624704484        2.2590343723        3.0990599590
 H         -1.3984635383        3.0457873214        2.5350703682
 H          0.4999916314        2.9321277402        1.2329193979
 C         -0.0690101487        3.6719012194       -0.6858997924
 C         -0.4240899882        5.0417338598       -0.1937135130
 C          0.9610656116        4.7595114991       -0.6915898231
 H          1.2674611415        5.1707048786       -1.6416156834
 H          1.7600684517        4.6938808792        0.0326704167
 H         -1.0745157982        5.6518421597       -0.8012480632
 H         -0.5612961980        5.1748350103        0.8684434870
 H         -0.4683569490        3.3606387991       -1.6426085322
