  62
        -98.94275164
 C         -0.7280042196       -1.9666097449        0.2233376553
 C         -1.3819491499       -1.1465010874        1.1721257521
 C         -2.6494868144       -0.5439408101        0.7429506752
 C         -3.1263180472       -0.8076042844       -0.4866438232
 C         -4.4026499401       -0.2773453417       -1.0823543014
 C         -4.4307158730        1.2437448910       -1.3322634360
 C         -5.0853905074        2.0532115691       -0.2055549125
 H         -5.7652259099        1.4021368341        0.3459671268
 H         -5.6966327382        2.8416138455       -0.6495305598
 C         -4.1221802757        2.7322793672        0.7728461160
 H         -4.6983181181        3.0455785332        1.6467340304
 H         -3.7144453266        3.6315836420        0.3049410272
 C         -2.9342603419        1.8881944524        1.2362509012
 H         -2.4548907964        2.4088811206        2.0688564760
 H         -2.1915539507        1.8396158924        0.4346107994
 C         -3.2923581797        0.4507450294        1.6652643979
 H         -4.3724281007        0.3138514702        1.6874521354
 H         -2.8979499137        0.2526990223        2.6643270035
 H         -5.0018913814        1.4070703360       -2.2477916996
 H         -3.4157656270        1.5985184059       -1.5179245115
 H         -5.2397322400       -0.5578124907       -0.4390167950
 H         -4.5212282248       -0.7988984631       -2.0342327103
 O         -2.4900081322       -1.6396884955       -1.3548736281
 C         -1.2570830858       -2.1964293484       -1.0465273060
 O         -0.7545267916       -2.8700566128       -1.9665635182
 O         -0.9181683697       -0.9151821194        2.3219850376
 C          0.6544261781       -2.4978618578        0.5477918967
 C          1.6857979895       -1.8567456719       -0.3527044619
 C          2.8607011757       -2.4932275328       -0.7354021634
 C          3.7749777956       -1.8431113332       -1.5466642654
 C          3.5508444141       -0.5496474765       -1.9835162746
 C          2.3796052467        0.0964909871       -1.6045324657
 C          1.4695104257       -0.5586085999       -0.7918208624
 H          0.5542332548       -0.0542591651       -0.5282057979
 N          2.0896011668        1.3967667948       -2.0372115329
 S          1.1474547763        2.4250234841       -1.1201152653
 O         -0.2321221712        2.0054532341       -1.1340653616
 O          1.4109056852        3.7324077916       -1.6834637881
 C          1.8370735785        2.3352855233        0.5219595866
 C          3.1082070812        2.8485946795        0.6994990495
 C          3.7024727034        2.7580751723        1.9467358018
 C          3.0219004006        2.1516216892        2.9925125361
 C          1.7455062664        1.6481013989        2.8006937553
 C          1.1440470225        1.7409281479        1.5551199847
 H          0.1537716503        1.3485367671        1.3874013667
 H          1.2070047681        1.1685778201        3.6026500222
 H          3.4868112751        2.0725463384        3.9625463346
 H          4.6931618064        3.1547711740        2.0995408783
 H          3.6005834026        3.3211984304       -0.1348005458
 H          2.8333150460        1.8758434881       -2.5211264403
 H          4.2636294655       -0.0497348677       -2.6208662030
 H          4.6795225468       -2.3519629403       -1.8432059170
 H          3.0549332622       -3.5010554879       -0.4064715086
 H          0.8585284377       -2.1670636234        1.5782509512
 C          0.6891860621       -4.0116454603        0.5092441588
 C          1.5706466623       -4.7756133618        1.4507294026
 C          0.0857353551       -4.7755944905        1.6488017459
 H         -0.4682824376       -5.6759230749        1.4298924154
 H         -0.3222442645       -4.2010397392        2.4676557036
 H          2.0378211247       -5.6823822196        1.0970247605
 H          2.1710759877       -4.2095224329        2.1467669594
 H          0.5411683242       -4.4044491661       -0.4901567434
