  62
        -98.93323338
 C         -1.9682506271       -0.9509843381        0.6768317551
 C         -2.0815925798       -0.2556829775       -0.5492323185
 C         -2.4881310717        1.1635605886       -0.4763799240
 C         -2.6731883551        1.7278995623        0.7304741859
 C         -3.1227124060        3.1296694858        1.0465382256
 C         -4.6286728223        3.3370128548        0.8135529608
 C         -5.1723808734        2.7239672895       -0.4744692742
 H         -4.9576212133        1.6538073683       -0.4799005449
 H         -6.2596146178        2.8367666114       -0.4620897221
 C         -4.6517390323        3.3523872446       -1.7646841246
 H         -5.1786193129        2.8741430952       -2.5941769374
 H         -4.9089700807        4.4138511656       -1.7748735850
 C         -3.1486213831        3.2156131253       -2.0151584808
 H         -2.9655573022        3.4925561277       -3.0575393175
 H         -2.5837091110        3.9162958920       -1.4062053269
 C         -2.5974243704        1.8039048532       -1.8394326797
 H         -3.1841701431        1.1107014071       -2.4530680650
 H         -1.5830031804        1.7702953745       -2.2560538981
 H         -4.8344478213        4.4085661876        0.8254053461
 H         -5.1636740565        2.8809813420        1.6501912943
 H         -2.9069586234        3.2955307037        2.1045145720
 H         -2.5366891754        3.8441363700        0.4758724767
 O         -2.5024229794        1.0311094846        1.8917395020
 C         -2.1328622660       -0.2984073181        1.8988546647
 O         -1.9840752385       -0.7850310919        3.0399948237
 H          0.6515981163       -0.9016979131        0.6656344783
 C          0.7245202057       -1.7128897693       -0.0460294037
 C         -0.3318063142       -2.6086883994       -0.1682340719
 C         -0.2193029195       -3.6461693347       -1.0832723173
 C          0.9223798990       -3.7735205709       -1.8565971571
 C          1.9655091557       -2.8756210475       -1.7386984484
 C          1.8570912673       -1.8242633118       -0.8324830679
 N          2.8771890702       -0.8631543783       -0.7406265497
 S          2.9740189741        0.1849946470        0.5670527435
 O          3.0422459553       -0.5524409924        1.8107674492
 O          1.9237200876        1.1678961014        0.4598842071
 C          4.5495202347        0.9453550743        0.2234938365
 C          5.6749003324        0.5227728438        0.9051358315
 C          6.8978107412        1.1027520619        0.6054468903
 C          6.9745556250        2.0877112006       -0.3675714691
 C          5.8360984967        2.5022740562       -1.0431326187
 C          4.6104164395        1.9274101507       -0.7473299816
 H          3.6974176531        2.2216234012       -1.2386539725
 H          5.8987760610        3.2701386129       -1.7972285810
 H          7.9270924388        2.5372834814       -0.5993213299
 H          7.7836243511        0.7847776704        1.1311499989
 H          5.5641599479       -0.2404797253        1.6584898109
 H          3.7812128620       -1.1962152309       -1.0434256115
 H          2.8497772256       -2.9714424842       -2.3495739737
 H          0.9977008095       -4.5843724156       -2.5652503097
 H         -1.0296485825       -4.3455859428       -1.2059776165
 C         -1.5252399427       -2.4023724101        0.7340783671
 H         -1.1775764448       -2.5464573207        1.7721301157
 C         -2.6428890797       -3.4104444407        0.5074622249
 C         -4.0788517999       -3.0366119250        0.7208860292
 C         -3.5750185556       -3.3154063765       -0.6615806773
 H         -3.8873024454       -4.2303410793       -1.1435371245
 H         -3.4357191468       -2.4870898253       -1.3375055939
 H         -4.7305146234       -3.7585372244        1.1900984845
 H         -4.2939237799       -2.0130846681        0.9929817031
 H         -2.3593699586       -4.4087272864        0.8265739597
 O         -1.8673730159       -0.7820771390       -1.6726239193
