  62
        -98.94041657
 C         -2.1078504827       -1.2477427366       -0.0389535748
 C         -2.3983411353       -0.0626891471       -0.7608653741
 C         -3.8045031028        0.3686529299       -0.7367922321
 C         -4.7256514593       -0.3616502979       -0.0848655349
 C         -6.1986286924       -0.0664162318       -0.0027424830
 C         -6.5746837314        0.9294325190        1.1028594594
 C         -6.1769347640        2.3812557454        0.8333215328
 H         -6.5478861936        2.6827581796       -0.1468080080
 H         -6.6866241393        2.9964901647        1.5775062165
 C         -4.6680438546        2.6510854829        0.9200983694
 H         -4.4924832710        3.5564120799        1.5055923361
 H         -4.1800580140        1.8296045190        1.4498862236
 C         -3.9793472812        2.8460299690       -0.4308907241
 H         -2.9099639262        2.9885321855       -0.2532242174
 H         -4.3638403922        3.7486998045       -0.9111469645
 C         -4.1452169305        1.6685400151       -1.4004685216
 H         -3.4512333732        1.8107931670       -2.2326104728
 H         -5.1618399002        1.6434064509       -1.7924944621
 H         -6.1242625596        0.5966515113        2.0408680810
 H         -7.6598075583        0.8886705292        1.2225305777
 H         -6.5521765688        0.3055570577       -0.9648008511
 H         -6.6949767996       -1.0165089325        0.2068195502
 O         -4.4096679287       -1.5027874748        0.5831905588
 C         -3.0995534646       -1.9472151723        0.6556320300
 O         -2.9474970440       -2.9669919279        1.3574443113
 O         -1.5502782907        0.6078184933       -1.4027444205
 C         -0.6945852737       -1.7946742953        0.0861111112
 C          0.2533102391       -0.6750721779        0.4357813017
 C          0.2208590437       -0.1430259020        1.7211650633
 C          1.0523751232        0.9027883936        2.0756207426
 C          1.9321495951        1.4419986307        1.1539536277
 C          1.9705219422        0.9193266440       -0.1317625581
 C          1.1452771918       -0.1418243780       -0.4809037435
 H          1.1674451305       -0.5229964414       -1.4897944986
 N          2.8544444392        1.4698628023       -1.0767686904
 S          4.4588397754        1.6556352200       -0.6473872241
 O          4.5961668399        2.7732130847        0.2522791109
 O          5.1800840348        1.7513464007       -1.8963862694
 C          4.8692876137        0.1382771842        0.1950325139
 C          4.9477717641        0.1118404666        1.5723915335
 C          5.1942680085       -1.0962089712        2.2054591672
 C          5.3544127375       -2.2502359884        1.4546827136
 C          5.2773162936       -2.2064503114        0.0707177535
 C          5.0277582795       -1.0025443167       -0.5671270769
 H          4.9684285848       -0.9266003153       -1.6410592637
 H          5.4065547506       -3.1052558581       -0.5107217405
 H          5.5426720758       -3.1896824772        1.9501204488
 H          5.2572726915       -1.1334301035        3.2810677366
 H          4.8225739224        1.0314757374        2.1195152600
 H          2.7655757156        1.0678419412       -1.9980871620
 H          2.5769290559        2.2684569197        1.4055120749
 H          1.0113391340        1.3075229290        3.0756217540
 H         -0.4765172366       -0.5548394533        2.4382892665
 H         -0.7350933775       -2.4828427900        0.9456712319
 C         -0.2295717148       -2.6206539090       -1.1040804308
 C         -1.1875411352       -3.5179215710       -1.8278326229
 C         -0.6236805578       -2.3129187333       -2.5161283125
 H          0.1084878641       -2.4673306251       -3.2958403609
 H         -1.2694375093       -1.4664275468       -2.6876502158
 H         -0.8469189317       -4.4952993180       -2.1346163957
 H         -2.2223183926       -3.4937217613       -1.5180108179
 H          0.7731770170       -3.0093305839       -0.9529243770
