  62
        -98.94350923
 C          1.7132947855        1.3772305392        0.6361914765
 C          2.5961538497        1.0343945417       -0.4171789258
 C          3.4170558482       -0.1673273267       -0.1971932544
 C          3.2643961866       -0.8805865056        0.9326172055
 C          4.0039086365       -2.1456588433        1.2570782944
 C          3.2370346916       -3.3839596618        0.7732047342
 C          2.7626616311       -3.2876542640       -0.6767922669
 H          2.2633482566       -4.2279926880       -0.9203576882
 H          2.0181907135       -2.4922832576       -0.7543898277
 C          3.8815780932       -3.0317579325       -1.6959818834
 H          4.8491354302       -3.2756574112       -1.2556901304
 H          3.7378749035       -3.6979474704       -2.5493232810
 C          3.9213442362       -1.6051784355       -2.2465251943
 H          2.9286599999       -1.3206779948       -2.6041912630
 H          4.5952221603       -1.5916310373       -3.1073746352
 C          4.4072883884       -0.5276913796       -1.2691746805
 H          5.3580272273       -0.8332646080       -0.8274442556
 H          4.5742727781        0.3884360832       -1.8430802307
 H          3.8821113817       -4.2566031561        0.8911319851
 H          2.3630398195       -3.5170817690        1.4146595740
 H          4.9885984345       -2.1113045406        0.7947660339
 H          4.1243680431       -2.2040963687        2.3401860688
 O          2.3735654986       -0.5460313934        1.9010128948
 C          1.5798183917        0.5786824591        1.7758220103
 O          0.8025644224        0.7656016343        2.7345670138
 H         -1.5438048719        1.7078670389        1.4848920097
 C         -1.5472475808        1.7770513674        0.4049341969
 C         -0.4099931654        2.2385592794       -0.2449619146
 C         -0.4106568320        2.2911449725       -1.6339904401
 C         -1.5305111896        1.8996684430       -2.3465909573
 C         -2.6672639313        1.4523371851       -1.6958953491
 C         -2.6707642357        1.3842614601       -0.3086354218
 N         -3.8211304724        0.9328697429        0.3702184750
 S         -4.4254673860       -0.5796124530       -0.0115121713
 O         -4.9289497617       -0.5607173750       -1.3609930783
 O         -5.3844963701       -0.8788076891        1.0264558403
 C         -3.0317174851       -1.6850129831        0.1060555724
 C         -2.7489556086       -2.2598900821        1.3289497422
 C         -1.6459129999       -3.0900930157        1.4411192838
 C         -0.8432990958       -3.3212529024        0.3348744675
 C         -1.1347124067       -2.7285939947       -0.8839333902
 C         -2.2394578397       -1.9008849574       -1.0035449605
 H         -2.5029547376       -1.4303704194       -1.9364959007
 H         -0.5054338497       -2.9093388105       -1.7409021489
 H          0.0145858626       -3.9690447126        0.4222531129
 H         -1.4139187169       -3.5501291269        2.3883463139
 H         -3.4035082807       -2.0613718348        2.1625728348
 H         -3.7455298927        1.0190092228        1.3740727925
 H         -3.5453119305        1.1435408420       -2.2398503507
 H         -1.5197701087        1.9455684599       -3.4251627574
 H          0.4788363540        2.6136362048       -2.1508456325
 C          0.8026731313        2.5958594082        0.5796723361
 H          0.4646226772        2.7603292377        1.6116686414
 C          1.4987509514        3.8525315450        0.1016367424
 C          0.8391200305        5.1760093622        0.3421722252
 C          2.0688348660        4.8002368543        1.1118104479
 H          2.9966723565        5.3017645510        0.8809517955
 H          1.9594334411        4.5467626280        2.1565377775
 H         -0.1058725261        5.1755390190        0.8647198462
 H          0.9198910181        5.9380142597       -0.4175880839
 H          2.0515983461        3.7240076727       -0.8186239810
 O          2.7160000149        1.6851632971       -1.4872300143
