  62
        -98.94895493
 C         -0.9021727285       -1.3452968402        0.2522329003
 C         -1.4010930595       -0.2159647204        0.9412182499
 C         -2.2540753499        0.6886699889        0.1596191395
 C         -2.4493736293        0.4398701585       -1.1481971405
 C         -3.3080593495        1.2696318978       -2.0580929909
 C         -4.7492420892        0.7431231468       -2.1007134113
 C         -5.3567411395        0.5025656667       -0.7186848814
 H         -4.8183910091       -0.3137655529       -0.2318794911
 H         -6.3846114292        0.1658780660       -0.8695394017
 C         -5.3498064806        1.7329324169        0.1990896683
 H         -6.3253927308        1.8135756863        0.6829502780
 H         -5.2070952010        2.6365003568       -0.3946711318
 C         -4.3027385409        1.6865416078        1.3133046587
 H         -4.3809773504        0.7367663578        1.8479218088
 H         -4.5308878116        2.4838310977        2.0255574184
 C         -2.8444287609        1.8723511287        0.8740799691
 H         -2.2423074912        1.9991432492        1.7783004293
 H         -2.7546697313        2.7760798686        0.2666669789
 H         -4.7554458984       -0.2019417233       -2.6487052511
 H         -5.3618675495        1.4592282163       -2.6515912916
 H         -2.8802076192        1.2265212479       -3.0615465608
 H         -3.2966576103        2.3033513379       -1.7170687211
 O         -1.9198652684       -0.6332345412       -1.7872040501
 C         -1.1313193580       -1.5490598106       -1.1088827297
 O         -0.7125511571       -2.4881211504       -1.8132026794
 O         -1.1400628000        0.0279543900        2.1506254100
 C          0.0140825019       -2.3093406094        0.9862861108
 C          1.3637149921       -2.2953156387        0.3122446812
 C          2.0658179630       -3.4356748683       -0.0524555284
 C          3.2674953331       -3.3258237176       -0.7318728380
 C          3.7810503924       -2.0887393673       -1.0743732581
 C          3.0932687915       -0.9405344177       -0.6960510685
 C          1.9148645713       -1.0538405483        0.0198745711
 H          1.3829918507       -0.1605836186        0.3130294808
 N          3.5790804507        0.3367839026       -1.0096781086
 S          2.5123428000        1.6007565818       -1.2604129392
 O          1.2877136805        1.1757946709       -1.8989720795
 O          3.2939155496        2.5808351022       -1.9878108191
 C          2.1905247490        2.2314643019        0.3724662706
 C          0.9138683287        2.6408324711        0.7001974701
 C          0.6822524479        3.1688838612        1.9602170300
 C          1.7251448376        3.2733129021        2.8668138403
 C          3.0023847980        2.8579754228        2.5219565608
 C          3.2423400387        2.3361819228        1.2612995609
 H          4.2206856890        2.0042884634        0.9566387213
 H          3.8101813277        2.9383491835        3.2314248110
 H          1.5380633170        3.6784791721        3.8487245201
 H         -0.3115314124        3.4881999406        2.2296255796
 H          0.1249086390        2.5202320405       -0.0267204801
 H          4.3625828509        0.3596971330       -1.6455853983
 H          4.7001719625       -2.0077119268       -1.6342749978
 H          3.8011483038       -4.2192226973       -1.0189639277
 H          1.6657663235       -4.4095758585        0.1770791617
 H          0.1258916413       -1.8945490392        1.9991834907
 C         -0.6066631272       -3.6859022098        1.0846547108
 C         -0.2469884870       -4.5947778394        2.2210537811
 C         -1.6013045874       -3.9558595103        2.1724458606
 H         -2.4576917669       -4.5731728609        1.9460951804
 H         -1.8134576682       -3.1502897003        2.8601428404
 H         -0.1751328862       -5.6548906394        2.0305057413
 H          0.4598397425       -4.2273890388        2.9493478913
 H         -0.7953889966       -4.1268219301        0.1121707109
