  62
        -98.93314011
 C         -2.6601434083       -1.1281835767        0.3658706140
 C         -2.8843038261       -0.3674782472       -0.8091737157
 C         -3.6762452935        0.8607799985       -0.6306393828
 C         -4.1506227616        1.1754332781        0.5873583824
 C         -4.9104805095        2.4268345478        0.9170089801
 C         -3.9606287446        3.5462690716        1.3666792734
 C         -2.7651258262        3.7544481080        0.4364236555
 H         -2.1823506710        4.5859744280        0.8387876586
 H         -2.1261404040        2.8686472150        0.4714756969
 C         -3.1395722371        4.0510826886       -1.0225404673
 H         -4.1792435712        4.3756604666       -1.0787112268
 H         -2.5220255201        4.8774536940       -1.3804686327
 C         -2.9208346205        2.8821435801       -1.9850798808
 H         -1.9065346741        2.4926105452       -1.8653363710
 H         -3.0071690481        3.2625805378       -3.0062348779
 C         -3.9038420245        1.7126340592       -1.8475072445
 H         -4.9290474698        2.0869126369       -1.8719332819
 H         -3.7566539593        1.0523700038       -2.7069561858
 H         -4.5311889377        4.4737127196        1.4421468556
 H         -3.5812191606        3.2992912791        2.3611552948
 H         -5.4757753019        2.7441005677        0.0430683219
 H         -5.6061422028        2.2047244244        1.7279887474
 O         -3.9377424339        0.4045909515        1.6857341696
 C         -3.1675212407       -0.7424326145        1.6072484990
 O         -3.0072608500       -1.3269115120        2.7001858583
 H         -0.0192099217       -1.0528899545        1.6715171253
 C          0.3559567153       -1.2611274108        0.6759593658
 C         -0.4412980634       -1.9967896468       -0.1990117301
 C          0.0534304017       -2.2377038784       -1.4736537304
 C          1.3006128284       -1.7623287044       -1.8457583081
 C          2.0792452561       -1.0256736741       -0.9742574274
 C          1.5957089995       -0.7679632161        0.3020771301
 N          2.3520850192        0.0115451142        1.1928625862
 S          3.9881290967       -0.3081317455        1.3746955359
 O          4.2846427894       -1.7037282466        1.1485970924
 O          4.3305613703        0.2182221394        2.6779295183
 C          4.7610288150        0.6939111883        0.1223466581
 C          4.4601734833        2.0414485941        0.0895670970
 C          5.0583260110        2.8371503043       -0.8743446174
 C          5.9454065178        2.2761250112       -1.7811123513
 C          6.2406202114        0.9224179734       -1.7320447514
 C          5.6443443133        0.1205124418       -0.7711712915
 H          5.8388483770       -0.9377591889       -0.6990885391
 H          6.9307155266        0.4883901163       -2.4375847572
 H          6.4088803486        2.8980564537       -2.5305662936
 H          4.8305047230        3.8901378360       -0.9159391459
 H          3.7678550761        2.4390979339        0.8129837397
 H          1.9089230279        0.1579367697        2.0879038734
 H          3.0447342611       -0.6491396662       -1.2695098456
 H          1.6642796613       -1.9608240535       -2.8425240132
 H         -0.5323716268       -2.7685180020       -2.2010998948
 C         -1.7953257801       -2.3848622986        0.3455520469
 H         -1.6388370277       -2.6291704282        1.4087549458
 C         -2.5708905547       -3.5674361540       -0.2152105171
 C         -2.8875556255       -3.8113738060       -1.6581148199
 C         -1.9509116324       -4.7296911141       -0.9307652233
 H         -2.3034706992       -5.7201802945       -0.6832162232
 H         -0.8970869543       -4.6864587679       -1.1539443162
 H         -2.5103879333       -3.1150513618       -2.3882829909
 H         -3.8775582849       -4.1772135491       -1.8919432338
 H         -3.3733491506       -3.8151401669        0.4771851910
 O         -2.4484010837       -0.6770758289       -1.9446333227
