  62
        -98.94024608
 C         -0.3773080149       -2.0836988476       -0.4957087724
 C         -0.8528923731       -0.8667427433       -1.0434943828
 C         -2.2761491693       -0.5648484571       -0.8113925607
 C         -3.0191423566       -1.4018368222       -0.0669822465
 C         -4.4369878166       -1.1628697459        0.3677906816
 C         -4.4569030686       -0.1440968465        1.5256707595
 C         -5.1523890643        1.1747163334        1.1897759517
 H         -6.2333451140        1.0181222227        1.1892051090
 H         -4.9198546897        1.8789488438        1.9916908500
 C         -4.7665342483        1.8024804490       -0.1522482817
 H         -5.3027859753        1.3015961925       -0.9598358120
 H         -5.1231447520        2.8346741449       -0.1336470897
 C         -3.2691379120        1.8068915366       -0.4878560221
 H         -3.0447747090        2.7547932975       -0.9830351504
 H         -2.6641904147        1.7666293824        0.4204082622
 C         -2.8193671405        0.6865109837       -1.4446881326
 H         -3.6444634303        0.4264314516       -2.1139875626
 H         -1.9974638024        1.0659163587       -2.0590782467
 H         -4.9541226825       -0.5842823621        2.3916942688
 H         -3.4248630016        0.0567284053        1.8249236680
 H         -5.0266695790       -0.8017998199       -0.4718143536
 H         -4.8436465000       -2.1197297773        0.6958081404
 O         -2.5242395289       -2.5502254721        0.4629297247
 C         -1.2056981917       -2.9157928724        0.2623113528
 O         -0.8913389815       -3.9990269160        0.7976886956
 O         -0.1484838199       -0.0548498096       -1.7006252107
 C          1.0665623880       -2.5554060096       -0.6008246853
 C          1.8725258558       -1.9421590878        0.5191363526
 C          2.5790437117       -2.7268293870        1.4222768065
 C          3.2675726223       -2.1407694443        2.4701788124
 C          3.2459861421       -0.7690974069        2.6488203355
 C          2.5428119701        0.0228746422        1.7478231606
 C          1.8866619224       -0.5643464745        0.6777926653
 H          1.3440840093        0.0551733254       -0.0163183741
 N          2.4932931013        1.4170311092        1.8848149056
 S          1.1158214818        2.2496736947        1.4189024584
 O          1.2002288239        3.5059739569        2.1394240023
 O         -0.0854916593        1.4828901941        1.6625108518
 C          1.3339402840        2.5916425394       -0.3141986801
 C          2.5723273532        2.4614213478       -0.9080176931
 C          2.7037214750        2.7769879304       -2.2510360425
 C          1.6055989431        3.2191781234       -2.9712554219
 C          0.3710375283        3.3520062379       -2.3567916168
 C          0.2330722844        3.0377071547       -1.0152035535
 H         -0.7105535016        3.1150525027       -0.5004091097
 H         -0.4854051786        3.6907268214       -2.9181488603
 H          1.7103187633        3.4564422163       -4.0183999502
 H          3.6626856026        2.6695626089       -2.7325229677
 H          3.4065025774        2.1028879819       -0.3278520257
 H          2.8971016950        1.7896299088        2.7313034565
 H          3.7615257808       -0.3136822006        3.4806717993
 H          3.8116718565       -2.7598129263        3.1673921694
 H          2.5670518924       -3.8013009472        1.3133654141
 H          1.0397960649       -3.6418425673       -0.4389928269
 C          1.7129021058       -2.2850768358       -1.9446767817
 C          2.8875544477       -3.1152716112       -2.3633929860
 C          1.5644678111       -3.2897775588       -3.0455385159
 H          1.4499763013       -2.9302707671       -4.0568546289
 H          0.9944795236       -4.1829345911       -2.8333063101
 H          3.6868205678       -2.6365293077       -2.9075053845
 H          3.2166120144       -3.8938725197       -1.6918767386
 H          1.7073114523       -1.2394088672       -2.2209396813
