  62
        -98.93165954
 C         -0.4499676076       -2.2187535978       -0.0915360821
 C          0.3219593292       -1.7687130842        1.0086809934
 C          1.7830179175       -1.7308601118        0.7969623982
 C          2.2958346810       -2.1315685128       -0.3788746204
 C          3.7518248297       -2.1258694995       -0.7502831475
 C          4.2009134518       -0.6986418461       -1.1186569025
 C          5.2227052001       -0.0910221488       -0.1583796604
 H          6.1998815051       -0.5405562754       -0.3466123726
 H          5.2973748498        0.9726692586       -0.3907787213
 C          4.9141016951       -0.2538778895        1.3330048053
 H          5.2031429256       -1.2535184615        1.6610655398
 H          5.5566066384        0.4462874710        1.8709180644
 C          3.4582976091       -0.0045598387        1.7497042823
 H          3.4627407937        0.5303062602        2.7019408664
 H          2.9525057971        0.6391529432        1.0295183874
 C          2.6235572799       -1.2814827352        1.9600985815
 H          1.9077483579       -1.1010022593        2.7681793273
 H          3.2765478185       -2.0994111411        2.2787713389
 H          4.6330099273       -0.7018193354       -2.1201778834
 H          3.3141285351       -0.0634745933       -1.1560855950
 H          3.8685388360       -2.7940053594       -1.6038657514
 H          4.3411186504       -2.5133315591        0.0779654187
 O          1.5204326614       -2.5417070107       -1.4163931668
 C          0.1428120913       -2.5896582983       -1.3012502139
 O         -0.4416156291       -2.9874341234       -2.3291968167
 O         -0.1554314269       -1.4321866225        2.1216559652
 C         -1.9643720446       -2.3471855573       -0.0610444574
 C         -2.6329054993       -1.0881459821       -0.5512956176
 C         -3.6613143445       -1.1624466181       -1.4842535713
 C         -4.2865997005       -0.0145020729       -1.9361942827
 C         -3.8946231780        1.2258761909       -1.4688197318
 C         -2.8626816705        1.3129038983       -0.5381179322
 C         -2.2361857361        0.1588440955       -0.0853905338
 H         -1.4444227491        0.2347722543        0.6444103725
 N         -2.4703015334        2.5690929869       -0.0668881390
 S         -1.1048460796        2.9418730919        0.7908527611
 O         -1.0265248318        2.1729861999        2.0057073302
 O         -1.1903597593        4.3777760107        0.9602087372
 C          0.3155897524        2.6166602145       -0.2443865088
 C          1.5309656063        3.0241952859        0.2714592946
 C          2.6736835898        2.8962753715       -0.5008145559
 C          2.5846245103        2.3587961637       -1.7763353580
 C          1.3614058840        1.9408637682       -2.2756476337
 C          0.2127411595        2.0743268121       -1.5089189384
 H         -0.7421348980        1.7519893694       -1.8918544507
 H          1.2923805374        1.5099959213       -3.2620118458
 H          3.4708393859        2.2658029107       -2.3842520080
 H          3.6249790248        3.2169786409       -0.1074172607
 H          1.5535441283        3.4388608721        1.2666309704
 H         -2.8815687600        3.3700340342       -0.5192149231
 H         -4.3782871142        2.1248015950       -1.8185782136
 H         -5.0828143425       -0.0846098852       -2.6612521550
 H         -3.9584877288       -2.1285785153       -1.8643490460
 H         -2.1980577057       -3.1403699016       -0.7902060141
 C         -2.5069089496       -2.8105226955        1.2839478567
 C         -3.2082433524       -1.9101428934        2.2506729035
 C         -3.9870637570       -2.9409005460        1.4932720379
 H         -4.3594961237       -3.8029748798        2.0256432050
 H         -4.6352130878       -2.5937754193        0.7027845492
 H         -3.0176163047       -2.0633539459        3.3020093340
 H         -3.3298079650       -0.8708163484        1.9873543166
 H         -1.8847306332       -3.5859073154        1.7197150549
