  62
        -98.94121648
 C         -1.7895869935       -0.6536059313       -0.1115738261
 C         -2.9594301970       -1.1444980526        0.5268210087
 C         -4.2440017569       -0.6918817193       -0.0213445814
 C         -4.2487640434        0.1618956703       -1.0606334536
 C         -5.4811173458        0.7523331759       -1.6807255360
 C         -5.8541225574        2.0842686858       -1.0148519611
 C         -5.8864811078        2.0245294824        0.5124125046
 H         -4.8741539249        1.8487014895        0.8837075734
 H         -6.1917485826        3.0105334362        0.8694759676
 C         -6.8295349524        0.9580930300        1.0869218424
 H         -7.4017811040        1.4010673193        1.9047719188
 H         -7.5441072532        0.6458216759        0.3244354089
 C         -6.1228244770       -0.2743332322        1.6543019382
 H         -5.3412777173        0.0398155264        2.3506595778
 H         -6.8544855191       -0.8535853950        2.2238080756
 C         -5.4964141558       -1.2188151951        0.6207696962
 H         -6.2381054168       -1.4778211243       -0.1376733564
 H         -5.2042107060       -2.1344246801        1.1432229604
 H         -5.1204418689        2.8373574271       -1.3120338291
 H         -6.8309697018        2.3956366303       -1.3894956207
 H         -5.2834206590        0.9290213540       -2.7394060573
 H         -6.3029846300        0.0449024216       -1.5878767368
 O         -3.1127516199        0.6252396891       -1.6367369447
 C         -1.8553110268        0.2429642857       -1.1799342366
 O         -0.9196264104        0.7657307289       -1.8124207596
 O         -2.9288733866       -1.9263835952        1.5136743184
 C         -0.4552073964       -1.1019459765        0.4602621762
 C          0.4381722185        0.0837010063        0.7113417820
 C          0.2672552888        0.8494511493        1.8602126710
 C          1.0784326756        1.9408061639        2.1140479166
 C          2.0759033598        2.2951506314        1.2219687982
 C          2.2415600230        1.5462894587        0.0664434440
 C          1.4376120515        0.4428687346       -0.1793834734
 H          1.5728191139       -0.1249389127       -1.0868415278
 N          3.2815984509        1.8901984674       -0.8335056670
 S          4.7945575536        1.4001437860       -0.3061454412
 O          5.1345911498        2.1494039496        0.8760788627
 O          5.6844588521        1.5409303866       -1.4362283946
 C          4.5759681660       -0.3229166909        0.1025158512
 C          4.1288765477       -0.6591490749        1.3647202487
 C          3.8525452427       -1.9877234285        1.6446747632
 C          4.0232602626       -2.9509606135        0.6619945163
 C          4.4758158283       -2.5973726419       -0.6001639182
 C          4.7486118350       -1.2696422756       -0.8873440639
 H          5.1014176533       -0.9518397636       -1.8556054954
 H          4.6090625839       -3.3498381809       -1.3609216682
 H          3.8012696816       -3.9837231900        0.8815000622
 H          3.4966177659       -2.2650914966        2.6239269019
 H          4.0083812422        0.1187114443        2.1008874041
 H          3.1203774037        1.5288861749       -1.7638194957
 H          2.7315046985        3.1307457957        1.4063037970
 H          0.9345776550        2.5202968861        3.0134104729
 H         -0.5137323841        0.5782647717        2.5572302026
 H         -0.7171103715       -1.5434619839        1.4351404648
 C          0.2500104541       -2.1939011257       -0.3316631215
 C         -0.5302887058       -3.3130621411       -0.9510126858
 C          0.1680308316       -2.3145850770       -1.8225971137
 H          1.0532252978       -2.6313192249       -2.3550988664
 H         -0.4271197872       -1.5927734101       -2.3597071808
 H         -0.1330184812       -4.3148187154       -0.8920404283
 H         -1.6073869087       -3.2638397481       -0.8829985136
 H          1.2018635659       -2.4579183989        0.1202198004
