  62
        -98.93907907
 C          2.3583581297        1.1711583909       -0.0759353979
 C          3.4612941932        0.8705329173        0.7580625703
 C          4.4116016118       -0.1505135485        0.2772838816
 C          4.1718739280       -0.7492679101       -0.9042151727
 C          4.9643942776       -1.8380777547       -1.5780999329
 C          4.7440566302       -3.2171532650       -0.9371848884
 C          4.7827425334       -3.2289461087        0.5885160822
 H          4.5203961025       -4.2376492688        0.9184334075
 H          4.0141321144       -2.5546156284        0.9707069734
 C          6.1313023507       -2.8697699038        1.2081572195
 H          6.8913376172       -3.5606973233        0.8369157642
 H          6.0420772263       -3.0229016934        2.2866155764
 C          6.6165275077       -1.4374212195        0.9725420297
 H          7.0366928706       -1.3217532155       -0.0229412089
 H          7.4323149033       -1.2507576322        1.6768989277
 C          5.5661031055       -0.3613389572        1.2273096628
 H          6.0703823167        0.6101968559        1.2934482372
 H          5.1206087454       -0.5207817928        2.2157955000
 H          5.4974720362       -3.9029019172       -1.3286712757
 H          3.7616294642       -3.5813818505       -1.2484503011
 H          6.0194501128       -1.5811130691       -1.5885641217
 H          4.6211133459       -1.8781970412       -2.6143272015
 O          3.0845472222       -0.4399848362       -1.6675455423
 C          2.1584788196        0.5143943351       -1.2892344726
 O          1.2361086712        0.6824343699       -2.1115735417
 O          3.6525194983        1.4336105919        1.8693324525
 C          1.3637789147        2.2180860786        0.3983186282
 C          0.0584313198        1.5263769420        0.7018668665
 C         -0.0921210602        0.8627460963        1.9167383916
 C         -1.2496158871        0.1630561009        2.1998536507
 C         -2.2780277733        0.1011869473        1.2749399327
 C         -2.1297197382        0.7438664973        0.0539949594
 C         -0.9749369471        1.4658665250       -0.2193139440
 H         -0.8694171334        1.9500342772       -1.1771223877
 N         -3.1623561478        0.6800865173       -0.8972122478
 S         -3.8703744995       -0.8098640050       -1.2063821856
 O         -2.9569715257       -1.9041860131       -0.9704549451
 O         -4.4131965051       -0.7004191450       -2.5432295532
 C         -5.2203724584       -0.8788908566       -0.0448538406
 C         -6.0877778410        0.1945577078        0.0129347760
 C         -7.1502553074        0.1493384976        0.9012909484
 C         -7.3293094789       -0.9632481215        1.7099091758
 C         -6.4521960444       -2.0344087759        1.6375157204
 C         -5.3863923444       -1.9948388890        0.7517563034
 H         -4.6751033021       -2.8010231846        0.6657863000
 H         -6.5924655902       -2.8989411657        2.2663637653
 H         -8.1569329596       -0.9957593353        2.4007547442
 H         -7.8339918945        0.9807553757        0.9607437128
 H         -5.9148976590        1.0389450443       -0.6330227432
 H         -2.9360167530        1.1497579935       -1.7624800504
 H         -3.1784245134       -0.4532392039        1.4833473444
 H         -1.3538250659       -0.3426863424        3.1477728307
 H          0.7192737907        0.8932732993        2.6306278486
 H          1.7754050429        2.6013407796        1.3416689015
 C          1.2393269901        3.3658600555       -0.5813492448
 C          0.5824979804        4.6385651933       -0.1398759094
 C          2.0624482611        4.5997433488       -0.3707210266
 H          2.4642467584        5.1035815536       -1.2370813597
 H          2.7157216724        4.6229054029        0.4890649534
 H         -0.0342789229        5.1730564538       -0.8460618170
 H          0.2293389673        4.6867677312        0.8789398470
 H          1.0885864382        3.0435176354       -1.6046822164
