  62
        -98.94397756
 C         -1.7728082161       -1.2901355309       -0.2843983753
 C         -2.7910035999       -0.5403408795        0.3452678334
 C         -3.0970655481        0.7730048626       -0.2437481174
 C         -2.4181402212        1.1841061079       -1.3285939346
 C         -2.5946572333        2.4527456378       -2.1256865424
 C         -2.7914086018        3.7608977304       -1.3498500553
 C         -2.0305808518        3.8490133358       -0.0188173666
 H         -1.2949741841        3.0449289978        0.0582175634
 H         -1.4777927104        4.7904803718        0.0128375315
 C         -2.9561440795        3.8104054967        1.1995198128
 H         -2.4206407662        4.2289626520        2.0553821219
 H         -3.8216718063        4.4492100790        1.0071146921
 C         -3.4393477292        2.4199442989        1.6072170902
 H         -2.5920921622        1.8398062477        1.9851937509
 H         -4.1448025221        2.5357309069        2.4341232696
 C         -4.1114678082        1.5989166206        0.4933879862
 H         -4.7965264013        0.8883122169        0.9642045539
 H         -4.6801542425        2.2374668636       -0.1782955881
 H         -2.4651918894        4.5682425620       -2.0080222952
 H         -3.8529068377        3.9185737117       -1.1620623027
 H         -1.6933818503        2.5271793795       -2.7390134144
 H         -3.4397382250        2.3108096346       -2.8064808404
 O         -1.4513340936        0.4224639922       -1.9114737818
 C         -1.0715744322       -0.7968491666       -1.3819495019
 O         -0.1200162127       -1.3416246558       -1.9767371671
 O         -3.4207135373       -0.9522765095        1.3583636031
 C         -1.3313103437       -2.6100574218        0.3224057724
 C          0.1238111990       -2.5052099285        0.7095812323
 C          1.0645023455       -3.4986412202        0.4703188922
 C          2.3936072877       -3.3014297352        0.8061714107
 C          2.8169178290       -2.1062364971        1.3586296408
 C          1.8795190546       -1.1123939484        1.6145198496
 C          0.5446081550       -1.3326492973        1.3241759135
 H         -0.1703209165       -0.5508623859        1.5350940318
 N          2.2464257363        0.1451832094        2.1409051104
 S          2.0178106990        1.4599769456        1.1210233137
 O          2.4959798791        2.6037031807        1.8681194436
 O          0.6497601364        1.5121822342        0.6785029666
 C          3.1259605469        1.1410066645       -0.2398724996
 C          4.3792034962        1.7236739193       -0.2164173603
 C          5.2791703113        1.4243081882       -1.2256865796
 C          4.9159730393        0.5409524736       -2.2315854211
 C          3.6567514820       -0.0383362298       -2.2375488129
 C          2.7479591041        0.2597744262       -1.2328956727
 H          1.7613732589       -0.1779990355       -1.2257358316
 H          3.3648262126       -0.7256604518       -3.0153942780
 H          5.6164529391        0.3029024699       -3.0164846466
 H          6.2579661314        1.8762608161       -1.2235553857
 H          4.6138387546        2.4057614786        0.5849604583
 H          3.1900405009        0.1744613971        2.5037974111
 H          3.8589219365       -1.9396405214        1.5869234856
 H          3.1137463221       -4.0814010081        0.6116100380
 H          0.7591750973       -4.4240935319        0.0099570745
 H         -1.9304627222       -2.7302541674        1.2375437357
 C         -1.6264690880       -3.7629878595       -0.6133315291
 C         -1.9156651710       -5.1278900083       -0.0653091270
 C         -3.0193194774       -4.3126563272       -0.6670622922
 H         -3.4200829754       -4.6089865954       -1.6247004791
 H         -3.7507134709       -3.8703395840       -0.0063924391
 H         -1.5614460538       -5.9888397212       -0.6118405216
 H         -1.9041369189       -5.2489365613        1.0073372825
 H         -1.0811831982       -3.6882649104       -1.5475004714
