  62
        -98.93792500
 C         -2.8353919487       -0.1226937391        0.4993119398
 C         -2.2676113719        0.2566247323       -0.7437485893
 C         -2.0733410594        1.7010646592       -0.9368558798
 C         -2.5315221699        2.5713491263       -0.0195341478
 C         -2.4372400693        4.0709875429       -0.0925168121
 C         -1.1126731763        4.6312765305        0.4432171383
 C          0.1043882639        4.3763160590       -0.4465579380
 H         -0.1098178285        4.7197324855       -1.4589587397
 H          0.9195788003        4.9898284766       -0.0585990153
 C          0.5652870989        2.9115516891       -0.4877997784
 H          1.6491250588        2.8669622814       -0.3600563602
 H          0.1236962219        2.3655565966        0.3498631922
 C          0.2293575192        2.1791679392       -1.7881074123
 H          0.7563443808        2.6525874585       -2.6200614116
 H          0.5903348369        1.1482519455       -1.7133752152
 C         -1.2698881792        2.1430965942       -2.1220539588
 H         -1.6016380762        3.1223302815       -2.4676233411
 H         -1.4246862944        1.4160301005       -2.9228962809
 H         -0.9335792196        4.2123575544        1.4361855649
 H         -1.2353960918        5.7108598297        0.5545812970
 H         -2.5850453318        4.3988391450       -1.1215028691
 H         -3.2509896732        4.4646678733        0.5202713388
 O         -3.1627409501        2.1688265996        1.1159963006
 C         -3.2567395750        0.8226462687        1.4368271665
 O         -3.7300023422        0.5992325537        2.5689052643
 H         -0.4529012524       -0.7078479036        1.3590057665
 C         -0.4344126515       -1.6661219367        0.8518707136
 C         -1.6385045647       -2.2869237365        0.5396392961
 C         -1.5964988412       -3.5102849087       -0.1145137823
 C         -0.3822483270       -4.0807160629       -0.4576894737
 C          0.8108916410       -3.4474333505       -0.1661615822
 C          0.7807688872       -2.2216882444        0.4869033863
 N          1.9896075114       -1.5531701411        0.7834160676
 S          3.0433402438       -1.3432489254       -0.5260072523
 O          2.3439637754       -0.7867769409       -1.6608764930
 O          3.7264717277       -2.5923967201       -0.7547698464
 C          4.1869747922       -0.1531182546        0.1445939054
 C          5.0563720526       -0.5604456111        1.1387607042
 C          5.9374483266        0.3643752513        1.6758529467
 C          5.9346426777        1.6720576373        1.2126091645
 C          5.0583463551        2.0643607273        0.2121797215
 C          4.1740132274        1.1442090821       -0.3291925703
 H          3.4789862517        1.3982239920       -1.1139985575
 H          5.0611079507        3.0802121975       -0.1491600248
 H          6.6221101253        2.3897507545        1.6316005580
 H          6.6229746812        0.0634147256        2.4515011451
 H          5.0288042069       -1.5880854580        1.4608340794
 H          1.8108270990       -0.6521996681        1.2087022463
 H          1.7594930385       -3.8683678122       -0.4573395076
 H         -0.3659504983       -5.0288296459       -0.9741613509
 H         -2.5128130626       -4.0085736008       -0.3847071328
 C         -2.9194735872       -1.5801287020        0.9203025393
 H         -2.9747598455       -1.5550444363        2.0220296877
 C         -4.1714570656       -2.3016198228        0.4426905189
 C         -5.4056506270       -1.5438573639        0.0564555857
 C         -4.6076252333       -2.2587093735       -0.9899712081
 H         -5.0235225953       -3.1541428766       -1.4283843802
 H         -4.0081059960       -1.6754289736       -1.6709615036
 H         -6.3638036590       -1.9508574997        0.3431953655
 H         -5.3643571260       -0.4646762910        0.0864802183
 H         -4.3341798346       -3.2329757085        0.9760779670
 O         -1.9256987355       -0.5527452603       -1.6433588357
