  62
        -98.93916074
 C         -2.1113147398        1.0195695844        0.1027245145
 C         -2.9031277863        0.5285680185       -0.9667191764
 C         -3.6306197837       -0.7320949894       -0.7449404083
 C         -3.5075908020       -1.3607804468        0.4386205656
 C         -4.0720712411       -2.6744959846        0.9379891632
 C         -5.1785939116       -3.3908393515        0.1686066086
 C         -6.5293159727       -2.6753465986        0.1809608461
 H         -7.2071764124       -3.2126772379       -0.4855985401
 H         -6.9415156126       -2.7323022717        1.1915494078
 C         -6.4989144406       -1.2029142430       -0.2208052347
 H         -7.5187099383       -0.8156130864       -0.1475531827
 H         -5.8897435188       -0.6414461737        0.4904323741
 C         -5.9962762382       -0.9214143963       -1.6351297211
 H         -6.1706278627        0.1378678684       -1.8416878231
 H         -6.5770246677       -1.5022868038       -2.3541507208
 C         -4.5026012052       -1.1994820712       -1.8749700314
 H         -4.3248675471       -2.2512929094       -2.0861391623
 H         -4.1902203006       -0.6315536626       -2.7560439376
 H         -4.8586679960       -3.5897150118       -0.8499713706
 H         -5.3147734200       -4.3620139554        0.6521539142
 H         -3.2124054610       -3.3493097939        1.0205872731
 H         -4.4115063109       -2.4847256054        1.9614260793
 O         -2.7300972920       -0.8538109761        1.4385041298
 C         -2.0175097662        0.3263305500        1.3075738874
 O         -1.3699142539        0.6254436538        2.3322235606
 H          0.5870818865        1.3762499267        1.5222212342
 C          0.9489132253        1.4804102301        0.5101147981
 C          0.0957367976        1.9591578235       -0.4744621904
 C          0.5702090290        2.0462041911       -1.7783371474
 C          1.8638030833        1.6623859917       -2.0857327149
 C          2.7054442670        1.1721133040       -1.1030204929
 C          2.2361608490        1.0717300759        0.1997440446
 N          3.0748109482        0.5266039643        1.1989688690
 S          3.4356158328       -1.1059561127        0.9805795869
 O          2.3860526736       -1.7862722537        0.2542949717
 O          3.7444235175       -1.6169761105        2.2985568071
 C          4.9274744948       -1.0746331260        0.0084743051
 C          6.0522410400       -0.4943212012        0.5619719880
 C          7.2213776758       -0.4597445688       -0.1810428619
 C          7.2460335061       -1.0040398222       -1.4566951592
 C          6.1090294976       -1.5853905269       -1.9968856213
 C          4.9358895031       -1.6227653677       -1.2590656476
 H          4.0254404628       -2.0591607090       -1.6379615902
 H          6.1298540015       -2.0083336497       -2.9884228498
 H          8.1570171529       -0.9757722967       -2.0333981975
 H          8.1077564268       -0.0093399323        0.2357030869
 H          5.9892457037       -0.0891983767        1.5580342618
 H          2.6896497949        0.6483162227        2.1264222112
 H          3.7106281393        0.8604275027       -1.3362137779
 H          2.2178575339        1.7379032454       -3.1024564271
 H         -0.0932517665        2.3966842132       -2.5556532547
 C         -1.3375910891        2.3047774827       -0.1493476894
 H         -1.7904398282        2.7402687306       -1.0499071651
 C         -1.4460127305        3.3106139087        0.9782108166
 C         -1.1153003229        4.7458872164        0.7021422963
 C         -2.5369612725        4.3367439595        0.9408205820
 H         -3.0087695889        4.6190710060        1.8700297446
 H         -3.2116114042        4.3184587773        0.0973751444
 H         -0.6078547981        5.3131186955        1.4671098764
 H         -0.8254897420        5.0056100822       -0.3046749858
 H         -1.1804866733        2.9084162321        1.9470657823
 O         -2.9967475779        1.1231895906       -2.0733513382
