  62
        -98.93187131
 C          2.4190300790        0.4619723645        0.4179718996
 C          3.1913316121        0.3519932764       -0.7630129815
 C          4.3330370105       -0.5845827283       -0.7095222287
 C          4.5540122305       -1.2947583446        0.4089336578
 C          5.6814859134       -2.2519366030        0.6799057420
 C          6.8445097401       -1.5331173177        1.3846373566
 C          7.8514190708       -0.8651987628        0.4487713664
 H          8.4383021874       -1.6358794655       -0.0553901686
 H          8.5377628768       -0.2855800239        1.0705457762
 C          7.2478774009        0.0602176705       -0.6110936205
 H          8.0341817622        0.7377637749       -0.9498442253
 H          6.4650830007        0.6739219564       -0.1614735424
 C          6.6878325463       -0.6962775382       -1.8248614074
 H          7.0385845318       -1.7276925319       -1.7930066195
 H          7.0933902246       -0.2599663043       -2.7400526098
 C          5.1580327408       -0.6747804794       -1.9645888329
 H          4.8390552055       -1.5572548240       -2.5289719646
 H          4.8588539630        0.1970533287       -2.5548785277
 H          7.3833748707       -2.2569403271        1.9994655172
 H          6.4167460794       -0.7867097881        2.0591068002
 H          6.0120256617       -2.7290699409       -0.2378022396
 H          5.2864077794       -3.0160825652        1.3525084919
 O          3.7645423654       -1.1835220416        1.5133589716
 C          2.6982593575       -0.3081324713        1.5498451226
 O          2.0800190596       -0.2969802953        2.6343205796
 O          2.9643053255        0.9973367768       -1.8177582986
 C          1.2384674764        1.4092456916        0.5564561986
 C         -0.0344768373        0.7671648868        0.0687138391
 C         -0.1295183142        0.2203829223       -1.2072656362
 C         -1.3152504371       -0.3453608293       -1.6393486477
 C         -2.4242104181       -0.3839738153       -0.8119061066
 C         -2.3377896302        0.1508413159        0.4659717199
 C         -1.1473550113        0.7231692754        0.8956056735
 H         -1.0816560874        1.1309244754        1.8959206293
 N         -3.4583021882        0.0989097529        1.3141191073
 S         -4.9009787012        0.7400710245        0.7384765820
 O         -4.6596038650        1.7995362929       -0.2134014669
 O         -5.6545603069        1.0966342695        1.9205245948
 C         -5.6950689771       -0.6355395961       -0.0645136955
 C         -6.1079737807       -0.5189366746       -1.3772732088
 C         -6.7378280651       -1.5970352722       -1.9795812134
 C         -6.9430233465       -2.7653455460       -1.2618144776
 C         -6.5236490823       -2.8654629187        0.0565997104
 C         -5.8945647590       -1.7911779261        0.6651546948
 H         -5.5565800553       -1.8277830690        1.6873965577
 H         -6.6846160230       -3.7760286166        0.6109379943
 H         -7.4326628360       -3.6031330267       -1.7326952938
 H         -7.0644466641       -1.5213061184       -3.0042974688
 H         -5.9212675933        0.4069467375       -1.8975891547
 H         -3.2734624846        0.4272340354        2.2512665306
 H         -3.3494648841       -0.8247888724       -1.1455733932
 H         -1.3770285597       -0.7622740162       -2.6331447631
 H          0.7331890259        0.2518225945       -1.8552281021
 H          1.1306700826        1.5679427602        1.6415501583
 C          1.4941476637        2.7748890496       -0.0684703095
 C          0.7888502049        3.2883057822       -1.2837160581
 C          0.4648570002        3.8590146028        0.0620126053
 H          0.7914675548        4.8605429801        0.2979546192
 H         -0.4870127767        3.5915368375        0.4978311430
 H          1.3627662134        3.8823650307       -1.9782798574
 H          0.0528185918        2.6581813872       -1.7569623714
 H          2.5301335628        3.0786081235        0.0437968200
