  62
        -98.94351920
 C          0.9418582498        1.6220868295       -0.3715654443
 C          1.2085434652        0.2525792583       -0.6216011382
 C          2.3338682422       -0.3261696832        0.1327016695
 C          2.9612534984        0.4112051919        1.0643839525
 C          4.1293729607       -0.0505456040        1.8862805123
 C          5.4620836227        0.2963027457        1.2080073002
 C          5.5298195073       -0.1142847482       -0.2628488701
 H          4.8093605577        0.4792609643       -0.8301142552
 H          6.5243147287        0.1498502680       -0.6288034567
 C          5.2692503978       -1.6054352080       -0.5168941481
 H          6.0157559997       -1.9757060620       -1.2227106359
 H          5.3940515125       -2.1658036859        0.4103319318
 C          3.8961505523       -1.9155512728       -1.1157886598
 H          3.9023189589       -2.9543030316       -1.4559144368
 H          3.7291877798       -1.2844252685       -1.9919779380
 C          2.6987898337       -1.7521988518       -0.1704760760
 H          1.8226241199       -2.1792971345       -0.6662847580
 H          2.8770637407       -2.3075458657        0.7532416132
 H          5.6099924546        1.3769590465        1.2701967448
 H          6.2676550939       -0.1892299694        1.7619304504
 H          4.0827783377        0.4476532263        2.8564121565
 H          4.0545365739       -1.1254632641        2.0403266311
 O          2.6241471167        1.6985381792        1.3359931754
 C          1.6250338423        2.3326392746        0.6179688308
 O          1.4401568007        3.5239317365        0.9441824188
 H         -1.2981870524        0.1817913516       -0.0912170394
 C         -1.8762683141        1.0608351784        0.1412772763
 C         -1.4396966985        2.3016729701       -0.2999826412
 C         -2.1959634961        3.4257230558        0.0088166767
 C         -3.3562790997        3.3059182955        0.7538135906
 C         -3.7747391390        2.0702596428        1.2141350359
 C         -3.0243150752        0.9402392135        0.9081349726
 N         -3.4197787865       -0.3338438793        1.3371541643
 S         -2.2721045658       -1.5076473915        1.6619022645
 O         -2.9688108163       -2.4604790090        2.5041693061
 O         -1.0692228444       -0.9426605336        2.2319927654
 C         -1.9318335698       -2.2882100421        0.0990970208
 C         -2.7899478853       -2.1325494951       -0.9697776930
 C         -2.5035645534       -2.7886956581       -2.1559832118
 C         -1.3795736367       -3.5931602368       -2.2497850689
 C         -0.5334792663       -3.7467394361       -1.1636704937
 C         -0.8093842455       -3.0868934968        0.0224242397
 H         -0.1678484511       -3.1621358467        0.8868159460
 H          0.3434835808       -4.3703910741       -1.2380200851
 H         -1.1566581553       -4.0987799845       -3.1761584406
 H         -3.1567126135       -2.6648923348       -3.0049823124
 H         -3.6533206379       -1.4954124283       -0.8703668258
 H         -4.1929559634       -0.3605600973        1.9850056974
 H         -4.6695651070        1.9789179849        1.8105973708
 H         -3.9344179772        4.1859258249        0.9915866740
 H         -1.8582584671        4.3978547418       -0.3191875873
 C         -0.1544258745        2.4045310041       -1.0793668649
 H          0.1688132673        3.4576578722       -1.0441343753
 C         -0.3158071306        2.0280984248       -2.5452672992
 C         -1.4586836755        1.2183117235       -3.0708584737
 C         -1.3825394785        2.6829198583       -3.3727479019
 H         -1.1384370624        2.9956555217       -4.3766637669
 H         -2.0758090146        3.3342902239       -2.8621319559
 H         -1.2451623970        0.5094803449       -3.8556280650
 H         -2.2043978459        0.8768677342       -2.3707340896
 H          0.6444032240        1.8701027745       -3.0255882252
 O          0.5621749446       -0.4650245943       -1.4258382502
