  62
        -98.93918932
 C          2.1348293851        0.9952569680        0.0682640121
 C          2.9038199519        0.3441731213        1.0576758094
 C          3.6840576065       -0.8338120075        0.6310428964
 C          3.5903472632       -1.2412120411       -0.6486863594
 C          4.3148413873       -2.3800692003       -1.3153173373
 C          5.7826275891       -2.0443296076       -1.6289262980
 C          6.5301751922       -1.3170684229       -0.5139964144
 H          5.9987302255       -0.3958375045       -0.2683074084
 H          7.5105882543       -1.0312294799       -0.9039473006
 C          6.7537494343       -2.1302239649        0.7587348330
 H          7.3570390124       -1.5178300189        1.4337196107
 H          7.3322590979       -3.0241453253        0.5151013121
 C          5.4914864322       -2.5607470422        1.5080315995
 H          5.8045846569       -2.9217695418        2.4921585858
 H          5.0089420345       -3.3986661639        1.0119763671
 C          4.4838305256       -1.4428312390        1.7579379447
 H          4.9925597421       -0.6062056749        2.2501888317
 H          3.7446489541       -1.7981738384        2.4865910433
 H          5.7984930149       -1.4021895972       -2.5128639779
 H          6.3029866571       -2.9711462162       -1.8759064499
 H          3.7936555700       -2.5754909781       -2.2552372599
 H          4.2419232594       -3.2759425978       -0.7056065562
 O          2.8060874964       -0.6005662338       -1.5630708477
 C          2.0664838979        0.5231655178       -1.2419365607
 O          1.4056432708        0.9958771935       -2.1859063880
 O          2.9433021301        0.7281643653        2.2590838079
 C          1.3302282613        2.2251586711        0.4461436902
 C         -0.1376543793        1.9873420637        0.1892619812
 C         -0.9585161646        2.8980053724       -0.4623600762
 C         -2.2956161372        2.6089465775       -0.6748157111
 C         -2.8443663043        1.4175968876       -0.2383533995
 C         -2.0336335180        0.5008594876        0.4185166867
 C         -0.6961928204        0.7944466309        0.6322953170
 H         -0.0650262835        0.0760981109        1.1421633590
 N         -2.5833046536       -0.7081909290        0.8815100913
 S         -3.4897668375       -1.6291563128       -0.1923778299
 O         -3.3970355762       -2.9844270089        0.3072158760
 O         -3.0771153034       -1.4187386086       -1.5604495577
 C         -5.1521594232       -1.0368937569        0.0471866207
 C         -5.8825660299       -0.5796921883       -1.0321078940
 C         -7.1763000857       -0.1276936153       -0.8223884443
 C         -7.7136727827       -0.1417855079        0.4555996096
 C         -6.9678567224       -0.6071298760        1.5284788524
 C         -5.6745545122       -1.0612960940        1.3256008719
 H         -5.0630202253       -1.4336104971        2.1303596454
 H         -7.3890639968       -0.6167603632        2.5208516124
 H         -8.7197968716        0.2119505939        0.6163248331
 H         -7.7573781889        0.2339548077       -1.6554259998
 H         -5.4202135976       -0.5819258823       -2.0065358642
 H         -1.9187746256       -1.2913678223        1.3697504718
 H         -3.8830758469        1.1866186860       -0.4086306829
 H         -2.9197334363        3.3230037091       -1.1900223164
 H         -0.5497927892        3.8305510644       -0.8147037944
 H          1.4723448006        2.3453226760        1.5307973754
 C          1.8801125837        3.4490331519       -0.2557965910
 C          1.7556690200        4.8028192396        0.3750524254
 C          3.0903487024        4.1249044259        0.3133707067
 H          3.8355462622        4.5074323495       -0.3678312026
 H          3.5016376365        3.7169712594        1.2252728353
 H          1.5863784250        5.6558622560       -0.2644514134
 H          1.2631230788        4.8637614435        1.3335683516
 H          1.8095684368        3.3746690628       -1.3353517691
