  62
        -98.93400429
 C         -1.6046456764       -1.2650087308        0.2289848924
 C         -1.7214876593        0.0103379259        0.8356612094
 C         -2.7441305164        0.9168308904        0.2887131066
 C         -3.4792888566        0.5080621098       -0.7596372038
 C         -4.6039268226        1.2467166634       -1.4304945631
 C         -5.9580307870        0.8274365777       -0.8335803621
 C         -6.3888261950        1.6153505352        0.4031537909
 H         -6.6679204584        2.6278935761        0.1039520738
 H         -7.2855934197        1.1332118339        0.7993253203
 C         -5.3456828100        1.7062447860        1.5202991934
 H         -4.8678424215        0.7345995912        1.6582662999
 H         -5.8703190092        1.9420689963        2.4483666260
 C         -4.2804874299        2.7830139600        1.2654908217
 H         -4.6143687762        3.4251280397        0.4505701839
 H         -4.1961648406        3.4215771128        2.1473258883
 C         -2.8687885003        2.2563626010        0.9618349992
 H         -2.3362511515        3.0017815479        0.3624321456
 H         -2.3140086858        2.1466362139        1.8990654104
 H         -5.9020755094       -0.2370437127       -0.5913701778
 H         -6.7303062735        0.9475953438       -1.5960915317
 H         -4.4587639386        2.3204428048       -1.3581824291
 H         -4.5841008878        0.9571907421       -2.4831456534
 O         -3.3152924874       -0.7127556081       -1.3339539167
 C         -2.3804879501       -1.6285268352       -0.8722429429
 O         -2.3580864540       -2.6901325724       -1.5200056187
 H          1.7303826004       -1.2822669212        1.9274591934
 C          1.8348497945       -1.4147219439        0.8593681997
 C          0.7635085443       -1.8994600703        0.1249725877
 C          0.9013437939       -2.0300443266       -1.2540941534
 C          2.0922751421       -1.6987024267       -1.8736221729
 C          3.1591184225       -1.2114634788       -1.1377981342
 C          3.0235646942       -1.0598689326        0.2351389973
 N          4.0878465309       -0.5067336386        0.9740906345
 S          4.6519014409        0.9718685334        0.4132430489
 O          5.5908890887        0.7498377740       -0.6575209717
 O          5.1743438599        1.6511578808        1.5775267479
 C          3.1980709769        1.7957779970       -0.2136721128
 C          2.1681290694        2.0544176509        0.6685560335
 C          0.9994577564        2.6223794770        0.1905179423
 C          0.8816970802        2.9209302854       -1.1580147572
 C          1.9287551579        2.6661521975       -2.0301998710
 C          3.0981348275        2.0928031928       -1.5573735609
 H          3.9310354335        1.8676854149       -2.2033670589
 H          1.8329013114        2.9035456626       -3.0775467515
 H         -0.0336351525        3.3534899842       -1.5310510665
 H          0.1821544661        2.8018774931        0.8700590130
 H          2.2807816767        1.8114605731        1.7128308169
 H          3.9014198101       -0.4540524022        1.9656474515
 H          4.0887364384       -0.9320542221       -1.6066517486
 H          2.1890288584       -1.8109223608       -2.9427694467
 H          0.0598789983       -2.3843806002       -1.8307499670
 C         -0.5482887350       -2.1918319899        0.8063277573
 H         -0.4488240055       -1.8810506106        1.8582739740
 C         -0.9410363774       -3.6613455104        0.8016389486
 C         -0.1914145283       -4.7201732991        0.0548057557
 C         -0.0961102736       -4.6524316185        1.5473382822
 H         -0.5843663531       -5.4132692678        2.1372503281
 H          0.8304583632       -4.2927557600        1.9699808246
 H         -0.7675004222       -5.5144214115       -0.3949385273
 H          0.6729074753       -4.4308644810       -0.5216684050
 H         -2.0150722827       -3.7975291040        0.8666772310
 O         -1.0062804893        0.3703203982        1.8092242027
