  62
        -98.94372055
 C          1.9360262806        1.2688634600       -0.2706185204
 C          1.8573171207       -0.0505787199        0.2368197299
 C          3.0943089808       -0.5767190597        0.8281873699
 C          4.1907475807        0.2002214304        0.8916673197
 C          5.5167778708       -0.1878519893        1.4876639097
 C          6.4266919208       -0.9689287395        0.5295898098
 C          5.9979889709       -2.4109444796        0.2545805902
 H          6.8325517709       -2.9016035297       -0.2503855798
 H          5.8415636310       -2.9288409794        1.2014126703
 C          4.7441964009       -2.5429746099       -0.6212760597
 H          4.5582720208       -1.5968686600       -1.1348629299
 H          4.9173989309       -3.2967861601       -1.3926050795
 C          3.4809336009       -2.9513338398        0.1368423005
 H          2.6500648909       -2.9742947401       -0.5725739495
 H          3.6065854910       -3.9574421697        0.5429904207
 C          3.1012394109       -2.0048716096        1.2832505403
 H          3.7853636010       -2.1357923693        2.1213194303
 H          2.0902719810       -2.2523875796        1.6163698404
 H          6.4919590307       -0.4215904797       -0.4137143003
 H          7.4254768808       -0.9873773293        0.9719525998
 H          6.0205159408        0.7427284908        1.7583137894
 H          5.3549974009       -0.7708895191        2.3948617398
 O          4.2131231706        1.4772451403        0.4236634594
 C          3.0987175905        2.0333874901       -0.1851129807
 O          3.2634985604        3.2016283500       -0.5931158710
 O          0.8147442908       -0.7511160200        0.2014703101
 C          0.7247381505        1.8915786297       -0.9389527205
 C         -0.4589041394        1.8960120898       -0.0019286604
 C         -0.2700318494        2.2397295802        1.3338944895
 C         -1.3293420093        2.2507890403        2.2210824495
 C         -2.6072214193        1.9327679601        1.7948412697
 C         -2.8100023894        1.6001691698        0.4629796898
 C         -1.7421502794        1.5864298796       -0.4272998503
 H         -1.9199503995        1.3247766194       -1.4590373902
 N         -4.1143552094        1.2871747796        0.0247626699
 S         -4.8371538692       -0.1011765704        0.6219121603
 O         -6.1620981793       -0.1283941206        0.0453680104
 O         -4.7637184792       -0.0863134700        2.0599176403
 C         -3.8703191492       -1.4450410604       -0.0429006194
 C         -2.5807959791       -1.6279459402        0.4152770705
 C         -1.8020615991       -2.6221329803       -0.1552494593
 C         -2.3274965491       -3.4190079106       -1.1606770590
 C         -3.6280594291       -3.2289619008       -1.6039646290
 C         -4.4059681692       -2.2263070607       -1.0483683492
 H         -5.4174479892       -2.0348100909       -1.3687245492
 H         -4.0333029391       -3.8524002910       -2.3849216388
 H         -1.7169280291       -4.1910710907       -1.6023781389
 H         -0.7821678791       -2.7372559502        0.1740517007
 H         -2.1892290091       -0.9962870200        1.1960394504
 H         -4.2107286395        1.2975297293       -0.9814891701
 H         -3.4416055393        1.9193974302        2.4764916797
 H         -1.1607086393        2.5127237806        3.2549763295
 H          0.7262994306        2.4914613903        1.6721211793
 H          0.9958314204        2.9369867397       -1.1486176408
 C          0.4479347005        1.1859665194       -2.2517437303
 C         -0.1409204497        1.9334909590       -3.4095395805
 C          1.2980307204        1.5161964691       -3.4402456505
 H          1.5914423304        0.7171128890       -4.1043292703
 H          2.0556268903        2.2757186492       -3.3104117507
 H         -0.8340629797        1.4191947188       -4.0585779403
 H         -0.3592696797        2.9818443391       -3.2714267507
 H          0.1641852106        0.1486909494       -2.1123913101
