  62
        -98.93865846
 C         -2.8704060181       -0.1588404252       -0.0000911455
 C         -2.6202389103       -1.1099870789       -1.0192962876
 C         -2.1853005407       -2.4373683473       -0.5658945727
 C         -2.1256917265       -2.6937977996        0.7537694571
 C         -1.5515034852       -3.9416074028        1.3578244697
 C         -0.0555912248       -3.7509814019        1.6537411666
 C          0.7427184572       -3.1700386591        0.4847758622
 H          0.4017688250       -2.1488845812        0.2893644828
 H          1.7850595632       -3.1027321821        0.8053239480
 C          0.6560715892       -3.9883598071       -0.8118150456
 H          1.6572893564       -4.0767383075       -1.2385981813
 H          0.3080923935       -4.9971484104       -0.5876016698
 C         -0.2354187857       -3.3781328792       -1.8958457849
 H          0.0542049216       -2.3373037929       -2.0713072417
 H         -0.0599594245       -3.9234113124       -2.8269706706
 C         -1.7445011654       -3.4153996893       -1.6179078519
 H         -2.2586381011       -3.1232021548       -2.5381420750
 H         -2.0489867187       -4.4308262204       -1.3593907064
 H          0.0434462306       -3.0722104977        2.5042097034
 H          0.3672299375       -4.7161084271        1.9370143721
 H         -2.0740622951       -4.1486395424        2.2927455901
 H         -1.6980488263       -4.7764870345        0.6761337824
 O         -2.5029100774       -1.7955587741        1.6993751686
 C         -2.8125172695       -0.4858668802        1.3553659978
 O         -3.0089717075        0.2645337570        2.3285789544
 O         -2.7098536727       -0.8459623022       -2.2493454215
 C         -3.0271967260        1.2953645738       -0.3962162931
 C         -1.8014284290        2.0751481988        0.0319790077
 C         -1.8290431982        3.4415874914        0.2852403721
 C         -0.6717404855        4.1192365183        0.6320194699
 C          0.5366892626        3.4557995004        0.7525465179
 C          0.5725198789        2.0898479528        0.5140246638
 C         -0.5807620818        1.4222127399        0.1377406023
 H         -0.5243625581        0.3607049471       -0.0722620395
 N          1.7891576356        1.3744483953        0.6563640524
 S          2.8858231128        1.6497550220       -0.6036452561
 O          3.3538866288        3.0076457230       -0.5047384357
 O          2.2924038270        1.2713040066       -1.8693816109
 C          4.1753873572        0.5023374791       -0.1657735735
 C          5.2665447010        0.9437003530        0.5563018475
 C          6.2365197173        0.0265313198        0.9297524272
 C          6.0962201549       -1.3085136045        0.5821924978
 C          4.9934279669       -1.7368881879       -0.1417893189
 C          4.0212850923       -0.8248454247       -0.5199408191
 H          3.1548294955       -1.1150208838       -1.0939864228
 H          4.8875899731       -2.7752011538       -0.4126117867
 H          6.8512352726       -2.0208594149        0.8749741056
 H          7.0963393889        0.3551954981        1.4907592272
 H          5.3324736659        1.9907436100        0.8015406056
 H          1.6077427237        0.3776429942        0.6759827356
 H          1.4450791824        3.9719707773        1.0166011592
 H         -0.7135736155        5.1817325552        0.8176195968
 H         -2.7611972934        3.9776423256        0.2067420635
 H         -3.0514159973        1.2971750736       -1.4976217185
 C         -4.3199218123        1.8939477397        0.1167280148
 C         -5.0556403847        2.9190817417       -0.6923177306
 C         -5.6027059937        1.5301290446       -0.5676465877
 H         -6.4822959239        1.3702018766        0.0372045012
 H         -5.5374873693        0.8762154801       -1.4253316652
 H         -5.5641954646        3.7167351237       -0.1721013479
 H         -4.6312595463        3.2092330421       -1.6420347219
 H         -4.3372751225        1.9832299984        1.1964792220
