  62
        -98.93124984
 C         -2.0720661960       -0.7341670809        0.5690969778
 C         -3.1811334784       -0.8332321086       -0.3025554131
 C         -4.2052190604        0.2270044858       -0.1963517341
 C         -4.0151775638        1.2442774333        0.6613217148
 C         -4.9044830311        2.4290993203        0.9444987881
 C         -5.5541640498        3.1183863827       -0.2651859884
 C         -7.0616602682        2.8778331284       -0.3674131204
 H         -7.4867867450        2.9103251853        0.6379083272
 H         -7.5077127638        3.6967175167       -0.9361759309
 C         -7.4674864077        1.5701259236       -1.0447714152
 H         -7.2649365910        1.6395552803       -2.1156503215
 H         -8.5474891703        1.4570564497       -0.9247830757
 C         -6.7795716568        0.3153270949       -0.5041553029
 H         -7.4080528087       -0.5431254137       -0.7502534634
 H         -6.7093402378        0.3568078454        0.5822281428
 C         -5.3899916785        0.0675506883       -1.1102531666
 H         -5.3243080399       -0.9636987429       -1.4700857501
 H         -5.2464442471        0.7016588237       -1.9894887530
 H         -5.3921755592        4.1924367859       -0.1598245337
 H         -5.0556007053        2.8064982148       -1.1814126903
 H         -5.6770461891        2.1179021886        1.6524987828
 H         -4.2652392413        3.1380035261        1.4759973156
 O         -2.9143967190        1.3151132603        1.4657800805
 C         -1.9402289744        0.3373511882        1.4564163548
 O         -1.0198509406        0.5269864311        2.2787908786
 H          1.6023086322       -0.9198510027        0.8198501659
 C          1.3244518424       -1.1128474170       -0.2058619930
 C          0.0383746541       -1.5404235122       -0.5051632073
 C         -0.3029970448       -1.7613136514       -1.8355429681
 C          0.6258883450       -1.5514145439       -2.8379016956
 C          1.9057961887       -1.1210581999       -2.5369037953
 C          2.2588581569       -0.9021115639       -1.2101599171
 N          3.5689292195       -0.5113689557       -0.8807965991
 S          3.8237806229        0.5278561664        0.4244676453
 O          3.7120403302       -0.2254658222        1.6478756971
 O          2.9846085892        1.6993095153        0.3007939119
 C          5.5327972767        0.9541061122        0.1438359584
 C          5.8513620512        2.1732997697       -0.4230644536
 C          7.1836279831        2.4749972486       -0.6597822539
 C          8.1685140215        1.5559633916       -0.3309051176
 C          7.8333408300        0.3361852689        0.2383794196
 C          6.5038622982        0.0292942929        0.4796746741
 H          6.1960072919       -0.9004425873        0.9287269812
 H          8.6019798698       -0.3747245943        0.4951810028
 H          9.2041661951        1.7928662753       -0.5167739111
 H          7.4472367984        3.4238254766       -1.0985755410
 H          5.0518469236        2.8584108298       -0.6556284380
 H          4.0945566084       -0.2067890117       -1.6895441935
 H          2.6286284205       -0.9574376230       -3.3218785380
 H          0.3483592963       -1.7204465200       -3.8674526592
 H         -1.3065088030       -2.0766849803       -2.0746225165
 C         -0.9505271029       -1.7605325710        0.6152531670
 H         -0.4215176316       -1.5710351851        1.5598585478
 C         -1.4506697417       -3.1923900318        0.6278320636
 C         -0.5435883322       -4.2672125563        1.1427535048
 C         -1.7439064575       -3.8532172884        1.9391613035
 H         -2.5839456294       -4.5287579377        1.9987257865
 H         -1.5851234755       -3.2732903849        2.8372747122
 H          0.4301141670       -3.9674453204        1.5014648909
 H         -0.5568796036       -5.2298521568        0.6554331992
 H         -2.0978979518       -3.4314671404       -0.2049551670
 O         -3.3433662036       -1.7614682484       -1.1383222761
