  62
        -98.93778825
 C         -1.1324456348       -1.6549416949        0.1452163124
 C         -1.5054867492       -0.5489241567        0.9477319929
 C         -2.7112036524        0.2001895074        0.5483863579
 C         -3.4055632509       -0.2147037415       -0.5263891238
 C         -4.6668316722        0.3625490607       -1.1171768146
 C         -5.7770891772        0.7330259497       -0.1209996740
 C         -5.9938212842        2.2409703991        0.0159910262
 H         -5.9129416280        2.6955135122       -0.9735292397
 H         -7.0110592323        2.4167928658        0.3727411906
 C         -5.0388244369        2.9476118848        0.9767556372
 H         -5.2029948228        4.0229264050        0.8753328322
 H         -5.2928920255        2.6767908490        2.0038651626
 C         -3.5536391404        2.6550429045        0.7522979990
 H         -3.3345070242        2.6245398815       -0.3143146750
 H         -2.9817029175        3.4849497506        1.1731708618
 C         -3.0697350157        1.3648489881        1.4320729722
 H         -2.1592980524        1.5706258159        2.0045018480
 H         -3.8099117549        1.0311939427        2.1657306823
 H         -6.7079910121        0.2901037261       -0.4785959617
 H         -5.5642300859        0.2919668717        0.8518499412
 H         -4.4051918178        1.2334931168       -1.7225411879
 H         -5.0291420893       -0.4002454974       -1.8098251419
 O         -3.0086308158       -1.2817317875       -1.2728385893
 C         -1.8751476444       -2.0208040306       -0.9775559688
 O         -1.6680033959       -2.9520640279       -1.7774563103
 O         -0.8552383792       -0.1960074171        1.9700573674
 C          0.1148900338       -2.4199503790        0.5575064448
 C          1.2898823472       -1.9954370535       -0.2909769450
 C          1.4327592240       -2.4098372693       -1.6114622951
 C          2.5142771762       -1.9873734881       -2.3621781926
 C          3.4615158169       -1.1344333196       -1.8225683653
 C          3.3241021038       -0.7085603174       -0.5073024973
 C          2.2485363681       -1.1507586490        0.2509999620
 H          2.1604375299       -0.8190561685        1.2746265227
 N          4.2657925640        0.1602776167        0.0702580671
 S          3.7209344020        1.4780587592        0.9503140323
 O          4.8533879994        2.3784866066        0.9827440355
 O          3.2216671677        1.0462644085        2.2294722355
 C          2.4244072420        2.1720161001       -0.0574686853
 C          1.1017730546        1.8718902984        0.1941563426
 C          0.1320901787        2.3628624748       -0.6667582956
 C          0.4960129238        3.1425252245       -1.7525897707
 C          1.8298744814        3.4430756883       -1.9860808072
 C          2.8042976776        2.9487831949       -1.1358238077
 H          3.8510895634        3.1648168744       -1.2765732534
 H          2.1101135105        4.0551872388       -2.8281184516
 H         -0.2649361908        3.5194143735       -2.4177016857
 H         -0.9021046920        2.1210350648       -0.4787720732
 H          0.8351897301        1.2674737172        1.0470423953
 H          5.0111477589        0.4340946606       -0.5541180915
 H          4.3017661035       -0.8018762738       -2.4128314167
 H          2.6164326854       -2.3187870452       -3.3843937235
 H          0.6793056759       -3.0457521692       -2.0484506053
 H          0.3207352298       -2.0987176434        1.5878489252
 C         -0.0718057584       -3.9238251496        0.5557908085
 C          0.8896393045       -4.7707294373        1.3323944123
 C         -0.5211705175       -4.6070083846        1.8107763344
 H         -1.1965844791       -5.4452112471        1.7271305174
 H         -0.6960712788       -3.9916637604        2.6816131413
 H          1.1863215299       -5.7232128397        0.9211373033
 H          1.6716648753       -4.2643996896        1.8785906514
 H         -0.4467805822       -4.3154671821       -0.3802579050
