  62
        -98.94401146
 C         -1.4179196366       -1.5716079941        0.3442703672
 C         -1.7774594154       -0.4439460834        1.1218896278
 C         -2.9371013932        0.3180496757        0.6456549755
 C         -3.5602104793       -0.0531841501       -0.4875827008
 C         -4.7659031260        0.6125091806       -1.0941519796
 C         -4.4362384768        1.8378108760       -1.9578357204
 C         -4.0067909064        3.0843760414       -1.1832749570
 H         -4.0220463422        3.9185271584       -1.8873920477
 H         -4.7427233432        3.2994580566       -0.4079194987
 C         -2.6079267719        2.9916795952       -0.5577293886
 H         -2.0489799382        2.1797712394       -1.0289457897
 H         -2.0580150244        3.9134204110       -0.7570431840
 C         -2.6020844081        2.7803848822        0.9557956175
 H         -1.5640149398        2.6836347383        1.2801759452
 H         -3.0359749458        3.6519365402        1.4504853825
 C         -3.3550851589        1.5293288736        1.4233535904
 H         -4.4312587433        1.6802954326        1.3403079534
 H         -3.1065773757        1.3514719494        2.4725609507
 H         -3.6540819986        1.5626855518       -2.6690930778
 H         -5.3341699614        2.0828451166       -2.5299096462
 H         -5.2468977720       -0.1358693551       -1.7276432148
 H         -5.4623781250        0.8983693881       -0.3053625971
 O         -3.1624969197       -1.1237176025       -1.2247059621
 C         -2.0877103989       -1.9093053234       -0.8320914246
 O         -1.8449589600       -2.8581912839       -1.6008419834
 O         -1.1664052129       -0.0981046745        2.1683164128
 C         -0.2565177377       -2.4343016329        0.8071379758
 C          0.8558962244       -2.3761869709       -0.2096089802
 C          1.2192254816       -3.4554386334       -1.0042305140
 C          2.2305425505       -3.3263359552       -1.9396123893
 C          2.9157313203       -2.1342154871       -2.0792485208
 C          2.5675114336       -1.0497264159       -1.2814403813
 C          1.5342274917       -1.1721241011       -0.3667335094
 H          1.2596458808       -0.3236470582        0.2452773579
 N          3.2527537311        0.1713487537       -1.3926278065
 S          3.7380306096        0.9649785397        0.0029457467
 O          4.9446009927        1.6686660365       -0.3819092716
 O          3.8619726402        0.0538371360        1.1155825481
 C          2.4747259390        2.1776120605        0.3124843493
 C          1.9180678855        2.2844135877        1.5705912747
 C          1.0086167911        3.3009208793        1.8163310862
 C          0.6716376029        4.1855372045        0.8033835202
 C          1.2297967847        4.0561854708       -0.4594563116
 C          2.1446359209        3.0466063706       -0.7090308216
 H          2.6118186534        2.9228657977       -1.6718496916
 H          0.9597610081        4.7420927850       -1.2462514024
 H         -0.0322214353        4.9786455823        1.0012226178
 H          0.5676716191        3.3946726627        2.7960988388
 H          2.2012168163        1.5730520839        2.3302926301
 H          3.9950063332        0.1673378991       -2.0780192951
 H          3.7152356438       -2.0387227538       -2.7986579967
 H          2.4961415310       -4.1694614373       -2.5592793037
 H          0.7012111161       -4.3941076305       -0.9021890069
 H          0.1080163168       -1.9613610885        1.7305361406
 C         -0.7211362502       -3.8385953798        1.1310566583
 C          0.1185215809       -4.7130161215        2.0119596755
 C         -1.1740844529       -4.1537697519        2.5237082890
 H         -2.0110060327       -4.8234785898        2.6535572802
 H         -1.1352681549       -3.3576662669        3.2528189209
 H          0.1706282265       -5.7688526477        1.7940302494
 H          1.0387483140       -4.2963064230        2.3933246602
 H         -1.2638860097       -4.3038181889        0.3164378534
