  62
        -98.94296603
 C          2.0532493264        0.9449032627        0.6497922895
 C          2.9108801447        1.0526377592       -0.4723592250
 C          4.2609941977        0.4917520001       -0.3031314601
 C          4.5994225141       -0.0924777587        0.8597224906
 C          5.9196786369       -0.7479011322        1.1413375144
 C          5.8884698309       -2.2414346748        0.7881314323
 C          5.3256091178       -2.5366367317       -0.6022450517
 H          5.3824255938       -3.6169542500       -0.7529810502
 H          4.2673171774       -2.2656394014       -0.6238296402
 C          6.0552918434       -1.8214554524       -1.7479057903
 H          7.0355390324       -1.4839639561       -1.4091652416
 H          6.2205871080       -2.5359476307       -2.5570808187
 C          5.2908161137       -0.6392941190       -2.3463573301
 H          4.2744702784       -0.9511696299       -2.5998902926
 H          5.7864987956       -0.3507162653       -3.2770983323
 C          5.2054945445        0.6137505409       -1.4659992857
 H          6.2042506610        0.8914008642       -1.1232327778
 H          4.8154667115        1.4269809287       -2.0848372996
 H          6.9040222789       -2.6347065281        0.8625681199
 H          5.2691267368       -2.7589788305        1.5245093209
 H          6.6976434929       -0.2454019375        0.5697817762
 H          6.1366236929       -0.6402162716        2.2055223616
 O          3.7450318139       -0.1924328676        1.9099706229
 C          2.4601992538        0.3125935693        1.8286464998
 O          1.7804653246        0.1472057601        2.8627222983
 H         -1.1130099063       -0.2221033362        1.7851959387
 C         -1.1383931900       -0.2940373724        0.7057704454
 C         -0.2897483498        0.5051324721       -0.0475837533
 C         -0.3162260744        0.3868182936       -1.4328325093
 C         -1.1699259106       -0.5156855622       -2.0416672156
 C         -2.0181996966       -1.3079353895       -1.2882873505
 C         -1.9980295655       -1.1971646680        0.0956794506
 N         -2.8796328731       -1.9810014184        0.8630676662
 S         -4.4960369868       -1.9241166869        0.4206752940
 O         -5.2362808962       -2.1908191231        1.6338044192
 O         -4.7288243121       -2.8344903260       -0.6722677660
 C         -4.7513763098       -0.2436990347       -0.1230179902
 C         -4.6000315370        0.7678110455        0.8050508928
 C         -4.7290428826        2.0829201185        0.3902638430
 C         -5.0025330567        2.3632390166       -0.9398632085
 C         -5.1582078945        1.3366843680       -1.8577451023
 C         -5.0290200988        0.0189473541       -1.4486909895
 H         -5.1387476092       -0.8086991423       -2.1301014576
 H         -5.3733603929        1.5578652151       -2.8906559599
 H         -5.0952498136        3.3887130827       -1.2606848872
 H         -4.6113860501        2.8839820912        1.1025251563
 H         -4.3932515401        0.5149107350        1.8328475868
 H         -2.7730752924       -1.8529648100        1.8589090535
 H         -2.6909405587       -2.0145101386       -1.7471286082
 H         -1.1765520621       -0.6029614281       -3.1174250284
 H          0.3555365960        0.9887196518       -2.0240457747
 C          0.6277901120        1.4762145080        0.6559256095
 H          0.3324832900        1.5025690683        1.7134142161
 C          0.5001399098        2.8771972947        0.0914775402
 C         -0.7506343433        3.6512380180        0.3764499960
 C          0.5411092938        4.0478098371        1.0246748261
 H          1.0300153318        4.9519579989        0.6942373601
 H          0.6686824592        3.8450232378        2.0784236917
 H         -1.1521237046        4.2840103238       -0.3994478742
 H         -1.5010680863        3.1746920641        0.9892458124
 H          0.9618085498        2.9998272776       -0.8783876209
 O          2.5922658324        1.5895903605       -1.5649325592
