  62
        -98.94525807
 C         -2.4563877404       -1.2044738487       -0.0729268576
 C         -3.5395105161       -0.8319956343        0.7632078520
 C         -4.4342154431        0.2027469239        0.2355788310
 C         -4.1972376180        0.7331814728       -0.9779122849
 C         -5.0276579814        1.7854594937       -1.6612625085
 C         -4.6857636943        3.2208668554       -1.2385867827
 C         -5.1442914016        3.6120101078        0.1669028821
 H         -5.0372865341        4.6955345909        0.2478091621
 H         -6.2037631139        3.3799266431        0.2795972642
 C         -4.3466091204        2.9518472435        1.3003006240
 H         -4.0868477876        3.7042273826        2.0484221053
 H         -3.4066837057        2.5593223329        0.9042697001
 C         -5.0872627489        1.8283781986        2.0258730409
 H         -4.4170905230        1.4088671108        2.7802953289
 H         -5.9598736893        2.2373642110        2.5397895944
 C         -5.5493208743        0.6842324365        1.1140376378
 H         -5.8604872328       -0.1522214150        1.7444134042
 H         -6.3986152141        1.0032252032        0.5105026834
 H         -3.6053189483        3.3615670523       -1.3224384009
 H         -5.1643563885        3.8935970297       -1.9540761970
 H         -6.0853632123        1.5932357458       -1.4792151656
 H         -4.8347101570        1.6868931160       -2.7317073755
 O         -3.1513881018        0.3442395199       -1.7539747318
 C         -2.2447804355       -0.6123292210       -1.3179662374
 O         -1.3277580290       -0.8436688335       -2.1306275646
 O         -3.7496597411       -1.3446897942        1.8940166582
 C         -1.4807154453       -2.2474360798        0.4483203178
 C         -0.1723849331       -1.5544174806        0.7366244380
 C         -0.0275341279       -0.8454104631        1.9263364540
 C          1.1299208033       -0.1380040818        2.1897176902
 C          2.1636614887       -0.1132627731        1.2690056132
 C          2.0208619741       -0.8013208333        0.0723422028
 C          0.8665629589       -1.5315281796       -0.1800948095
 H          0.7650321415       -2.0510665841       -1.1196747633
 N          3.0581179535       -0.7714723012       -0.8758046394
 S          3.7499290508        0.7122307527       -1.2476597624
 O          2.8263137617        1.8053134281       -1.0484787146
 O          4.2869803289        0.5561602705       -2.5821488227
 C          5.1045275028        0.8375585004       -0.0963951910
 C          5.9992367027       -0.2125253695       -0.0272995025
 C          7.0637645963       -0.1280397364        0.8556523828
 C          7.2176702663        1.0001426294        1.6476802916
 C          6.3132447315        2.0475025732        1.5641039454
 C          5.2452470960        1.9685369449        0.6836075258
 H          4.5138339721        2.7555406190        0.5890989147
 H          6.4340546506        2.9240577108        2.1802016985
 H          8.0470233210        1.0635773585        2.3342851882
 H          7.7687461872       -0.9408522224        0.9235556372
 H          5.8456181185       -1.0692824003       -0.6616746296
 H          2.8391673408       -1.2797276536       -1.7209498928
 H          3.0641059756        0.4468996932        1.4611763883
 H          1.2294685841        0.4033469319        3.1182968490
 H         -0.8437378672       -0.8458704123        2.6353789676
 H         -1.9049016600       -2.5880012273        1.4024671826
 C         -1.3580669522       -3.4356138623       -0.4815980846
 C         -0.7165997426       -4.6939227615        0.0198298148
 C         -2.1938067621       -4.6527415034       -0.2274876614
 H         -2.5912594730       -5.1892356314       -1.0760494630
 H         -2.8557812317       -4.6347008932        0.6257199267
 H         -0.0974949205       -5.2629392207       -0.6567302445
 H         -0.3739293422       -4.7019719481        1.0433454289
 H         -1.1943384523       -3.1582953296       -1.5159079707
