  62
        -98.94320520
 C         -1.8764674695       -1.1604329601        0.3257700810
 C         -2.4290127396       -0.1576469496        1.1643362904
 C         -3.8343392496        0.1869695902        0.9252270002
 C         -4.5241626696       -0.4579467904       -0.0328477594
 C         -5.9726176096       -0.2445822707       -0.3799611995
 C         -6.2203228997        0.9284080787       -1.3380270902
 C         -6.0463880097        2.3175796491       -0.7230409310
 H         -6.4598406198        3.0367499686       -1.4328703115
 H         -6.6371378197        2.3861862096        0.1909328789
 C         -4.5895890098        2.7004327693       -0.4262327013
 H         -3.9177951797        2.0396847890       -0.9794119209
 H         -4.3999291198        3.7163135291       -0.7803367419
 C         -4.2114858398        2.6607670002        1.0546497488
 H         -3.1509108498        2.9113368203        1.1441974586
 H         -4.7821020298        3.4165539905        1.5992295083
 C         -4.4355916497        1.3005453606        1.7282787196
 H         -3.9391722297        1.3145661112        2.7018238095
 H         -5.5008441397        1.1277355506        1.8811473897
 H         -5.5539012597        0.8247729882       -2.1973669302
 H         -7.2470713397        0.8413846184       -1.7007126502
 H         -6.3137593695       -1.1621934710       -0.8639655290
 H         -6.5498498896       -0.0978598302        0.5333939904
 O         -3.9665180895       -1.4269223409       -0.8025498388
 C         -2.6331003295       -1.7904006807       -0.6630955686
 O         -2.2757081795       -2.6769313112       -1.4611118981
 O         -1.7799654196        0.4142570110        2.0813930301
 C         -0.4146346495       -1.5188065499        0.5421966012
 C          0.4337935804       -0.8985784305       -0.5421241991
 C          0.5661994305       -1.4747735312       -1.8016148688
 C          1.3263122804       -0.8563597817       -2.7771998792
 C          1.9857303604        0.3313790985       -2.5136483199
 C          1.8601468203        0.9159088592       -1.2596099102
 C          1.0838625904        0.3019087497       -0.2865667698
 H          0.9801534503        0.7782488903        0.6774932699
 N          2.5245920203        2.1198910594       -0.9564781709
 S          3.4987266103        2.1516609203        0.4058518491
 O          2.6918759803        2.1679780609        1.5980565291
 O          4.3714458502        3.2879041402        0.2068458184
 C          4.4314819904        0.6352093703        0.3006014500
 C          4.0032588704       -0.4806774494        0.9904623306
 C          4.6915819405       -1.6726333594        0.8273301013
 C          5.7878478605       -1.7278373699       -0.0192092186
 C          6.2091003204       -0.5964580202       -0.7013294393
 C          5.5227418404        0.5965696298       -0.5454655900
 H          5.8219790503        1.5012252895       -1.0496608205
 H          7.0653980204       -0.6418283706       -1.3547375693
 H          6.3175487805       -2.6588172099       -0.1449457681
 H          4.3671613105       -2.5537880891        1.3577448218
 H          3.1485489404       -0.3942142090        1.6419146306
 H          3.0191963603        2.5187379590       -1.7421564011
 H          2.5847241904        0.8091424781       -3.2742281901
 H          1.4131503205       -1.3094308923       -3.7530224489
 H          0.0414916105       -2.3902310914       -2.0211958683
 H         -0.1448926096       -1.0342933793        1.4908950309
 C         -0.1839836894       -3.0095836398        0.6820719821
 C          1.0739221206       -3.4879725093        1.3402513624
 C         -0.2413151894       -3.6307135090        2.0441020625
 H         -0.6728466394       -4.6154958689        2.1424285830
 H         -0.4463673595       -2.9802034685        2.8822392821
 H          1.5515863606       -4.3759229295        0.9564358729
 H          1.7584314805       -2.7361481891        1.7027972019
 H         -0.5796151994       -3.5905390703       -0.1402502176
