  62
        -98.94146306
 C          2.1250117228        1.3946338474        0.3056039724
 C          1.8077071568        0.3879509212       -0.6422828356
 C          2.8539722244       -0.6215132086       -0.8738922783
 C          3.9775978391       -0.6146081575       -0.1363322043
 C          5.1287033523       -1.5757462825       -0.2556961138
 C          4.9112125547       -2.9033489611        0.4835258783
 C          3.9228902808       -3.8652622749       -0.1774887447
 H          4.1973564091       -4.0026650387       -1.2240173664
 H          4.0384249960       -4.8312163457        0.3182564535
 C          2.4520069609       -3.4357754559       -0.0819492038
 H          2.3428056124       -2.6842262031        0.7037058244
 H          1.8430520235       -4.2959293011        0.2058420506
 C          1.8715980756       -2.8832385210       -1.3833939853
 H          0.8325255043       -2.5952362777       -1.2097770073
 H          1.8778508453       -3.6637528944       -2.1475992123
 C          2.6100994989       -1.6567404798       -1.9320351469
 H          3.5554796229       -1.9585621446       -2.3832602874
 H          1.9857762053       -1.2020031932       -2.7056406402
 H          5.8810725025       -3.4022102716        0.5463668350
 H          4.5837671601       -2.6861264081        1.5028447129
 H          5.3363270828       -1.7732812414       -1.3079332848
 H          5.9962853298       -1.0762930315        0.1810146846
 O          4.2028147997        0.3116973059        0.8320695228
 C          3.3041898025        1.3388390215        1.0596004555
 O          3.6597651834        2.1299080573        1.9556436857
 O          0.7307790071        0.3159089240       -1.2886953160
 C          1.2274614587        2.5871472372        0.6010481135
 C         -0.1868046217        2.1539800564        0.8889742186
 C         -0.5670690184        1.8199480514        2.1846110448
 C         -1.8590672126        1.4057928930        2.4555584697
 C         -2.7843129977        1.2766952533        1.4344463596
 C         -2.3984222413        1.5695890031        0.1324683252
 C         -1.1199396425        2.0434748730       -0.1285511968
 H         -0.8352905201        2.2794927618       -1.1415119300
 N         -3.2932871558        1.3652957171       -0.9288925747
 S         -4.3382881588        0.0656229461       -0.8673546689
 O         -4.5542375616       -0.3155798330       -2.2466937817
 O         -5.5264164184        0.4505470540       -0.1422611418
 C         -3.5373154375       -1.2640770233        0.0237152345
 C         -4.3382261235       -2.0384105148        0.8411882495
 C         -3.7756868342       -3.0925174949        1.5416114391
 C         -2.4188988269       -3.3478450460        1.4224813541
 C         -1.6285650924       -2.5605616949        0.6005286343
 C         -2.1861070236       -1.5131027848       -0.1173284224
 H         -1.5678065903       -0.8955501942       -0.7514451919
 H         -0.5699302380       -2.7502304904        0.5189078559
 H         -1.9719599447       -4.1600890382        1.9736422628
 H         -4.3929566909       -3.7036782265        2.1801222518
 H         -5.3843896394       -1.7900135745        0.9193207148
 H         -2.8630230468        1.4455147230       -1.8387102012
 H         -3.7936109271        0.9487900424        1.6269106987
 H         -2.1472238171        1.1701215886        3.4685417857
 H          0.1622967361        1.8904497781        2.9794255014
 H          1.6400332012        3.0257089265        1.5226687011
 C          1.2801721204        3.6798927528       -0.4600974087
 C          2.5941926217        4.1102867079       -1.0387853325
 C          1.5843599771        3.4201863992       -1.9034493668
 H          1.0610223870        4.0055043989       -2.6457500764
 H          1.7809008814        2.4052576078       -2.2106605014
 H          2.7736009110        5.1638212685       -1.1905425813
 H          3.4716793362        3.5558046125       -0.7380152573
 H          0.5627456389        4.4686529512       -0.2538776840
