  62
        -98.93884856
 C          1.8426639679        0.8884353474       -0.1274054701
 C          2.4315745476        0.1754595687        0.9400271004
 C          3.5386032123       -0.7407080116        0.6036224478
 C          3.8960166842       -0.8743411589       -0.6874927239
 C          5.0076782676       -1.7111920669       -1.2622688422
 C          6.3949248667       -1.0866356998       -1.0393100172
 C          6.6283920131       -0.5181280779        0.3580679363
 H          5.8660137617        0.2333646682        0.5712415040
 H          7.5943809044       -0.0064471854        0.3507234198
 C          6.6553091751       -1.5486943823        1.4842797604
 H          6.9095870299       -1.0170374354        2.4048228063
 H          7.4501765757       -2.2720302550        1.2889064612
 C          5.3519791569       -2.3136475999        1.7226479970
 H          5.4462744263       -2.8248857772        2.6853225844
 H          5.2107405691       -3.0896870973        0.9750635450
 C          4.1063468608       -1.4380308701        1.8167786269
 H          4.2763714029       -0.6533756623        2.5628662222
 H          3.2857291570       -2.0443680552        2.2199548470
 H          6.5148404359       -0.2693447400       -1.7545993615
 H          7.1521054571       -1.8409934378       -1.2596036592
 H          4.9652445367       -2.7179317651       -0.8569750461
 H          4.8253954512       -1.7783884899       -2.3371659054
 O          3.2743297424       -0.1905144000       -1.6904806116
 C          2.2431782258        0.6991784980       -1.4495450508
 O          1.7774164521        1.2401162407       -2.4696662217
 H         -0.3047273161       -0.5930151439        0.2062806751
 C         -0.9315141209        0.0727875207       -0.3743306197
 C         -0.5540880467        1.4032343752       -0.5153921448
 C         -1.3762771491        2.2483651169       -1.2482348455
 C         -2.5261362430        1.7625853482       -1.8481271865
 C         -2.8862658144        0.4341377910       -1.7233792493
 C         -2.0801721282       -0.4161436449       -0.9759263030
 N         -2.4469214899       -1.7643069464       -0.8243851126
 S         -4.0446220952       -2.0983089962       -0.4536783270
 O         -4.0127233954       -3.3516891740        0.2673202704
 O         -4.8350553175       -2.0881925418       -1.6593542688
 C         -4.5632430135       -0.7695360853        0.6184727738
 C         -3.8730096693       -0.5798230901        1.7994261275
 C         -4.2385932820        0.4678433227        2.6285282585
 C         -5.2834340279        1.3037412135        2.2646200690
 C         -5.9702032888        1.0966548348        1.0786810182
 C         -5.6069247125        0.0517373310        0.2440246180
 H         -6.1104958834       -0.1428855711       -0.6887953752
 H         -6.7832692831        1.7470457448        0.7995303876
 H         -5.5627867576        2.1204395712        2.9112521589
 H         -3.7041501569        0.6298302668        3.5509528413
 H         -3.0669580943       -1.2484681079        2.0571257594
 H         -1.8162575608       -2.2984397907       -0.2454607648
 H         -3.7692713695        0.0381755620       -2.1981210294
 H         -3.1491178867        2.4287009924       -2.4249331056
 H         -1.1127123781        3.2868973165       -1.3597216703
 C          0.7128022814        1.8576670869        0.1671020864
 H          0.5529659473        1.7949880057        1.2540430051
 C          1.1212837549        3.2724886922       -0.1839957535
 C          0.5288611340        4.4348353453        0.5537363083
 C          1.9562828290        4.0460578113        0.7906339092
 H          2.7384089311        4.6840347692        0.4072469696
 H          2.2081233131        3.5606759919        1.7224037968
 H         -0.1892180619        4.2202605519        1.3304224284
 H          0.3317189995        5.3452522649        0.0082176343
 H          1.3448614254        3.3912735979       -1.2381764151
 O          2.0500278226        0.2939712114        2.1371709855
