  62
        -98.94762562
 C         -1.8446124721       -1.3212540983       -0.1018256698
 C         -2.9366810213       -0.5831760570        0.4180946599
 C         -3.2328501798        0.6898605332       -0.2455239705
 C         -2.4776820892        1.0915355921       -1.2836088204
 C         -2.6380455977        2.3737485921       -2.0531037808
 C         -1.9345868264        3.5656905015       -1.3893846610
 C         -2.6356275759        4.1187877926       -0.1479741812
 H         -2.1786367349        5.0853873921        0.0736638887
 H         -3.6885333457        4.2973954437       -0.3713827014
 C         -2.5124564971        3.2242110527        1.0936157891
 H         -2.2563963765        3.8397412526        1.9599584989
 H         -1.6849612079        2.5230141717        0.9547149393
 C         -3.7828835880        2.4509072442        1.4504589691
 H         -4.5696634373        3.1538926652        1.7350080488
 H         -3.5648537588        1.8208882042        2.3169316692
 C         -4.3180070789        1.5480309646        0.3312221392
 H         -5.0748655197        0.8859125055        0.7597859093
 H         -4.7812906781        2.1513774749       -0.4492635710
 H         -1.8665040054        4.3644681312       -2.1319515611
 H         -0.9178184968        3.2652236704       -1.1218586808
 H         -3.6966458074        2.5984250133       -2.1870349810
 H         -2.1877434277        2.2089281614       -3.0343460507
 O         -1.4546073600        0.3463839108       -1.7706060401
 C         -1.0736086714       -0.8377938495       -1.1596199298
 O         -0.0593610219       -1.3575475407       -1.6644480296
 O         -3.6236462419       -0.9670515460        1.4038796099
 C         -1.4151746336       -2.5738327786        0.6436398205
 C          0.0633506865       -2.4809325203        0.9306262007
 C          0.9821636454       -3.4855920814        0.6592307611
 C          2.3300738355       -3.2900713528        0.9117404212
 C          2.7926905468       -2.0844228532        1.4056876910
 C          1.8788319080       -1.0741023521        1.6829753306
 C          0.5279330277       -1.2925930307        1.4824591305
 H         -0.1683673514       -0.4973428898        1.7081661302
 N          2.2856565893        0.1985042575        2.1414726904
 S          2.0574366909        1.4659440075        1.0621969101
 O          2.5276871422        2.6454986071        1.7577621598
 O          0.6901796910        1.4938000790        0.6145037999
 C          3.1763341107        1.0921247359       -0.2762506097
 C          4.4236446313        1.6880684945       -0.2728941997
 C          5.3341151911        1.3478077533       -1.2595606795
 C          4.9870397501        0.4114079034       -2.2223621993
 C          3.7334947295       -0.1798354751       -2.2081095093
 C          2.8136616697        0.1585404361       -1.2261537095
 H          1.8309686292       -0.2878819428       -1.2029863096
 H          3.4561374087       -0.9087104450       -2.9527969792
 H          5.6959840099        0.1414207025       -2.9891977292
 H          6.3083527516        1.8093226322       -1.2730726395
 H          4.6458212021        2.4111683545        0.4953869702
 H          3.2419275593        0.2240332065        2.4702215205
 H          3.8474785570       -1.9199230944        1.5678674511
 H          3.0326522247       -4.0801104337        0.6946937615
 H          0.6486556744       -4.4151467611        0.2280292712
 H         -1.9520262637       -2.5118697878        1.6060260605
 C         -1.8360785950       -3.8851127483       -0.0014166292
 C         -2.9810281949       -3.9377996572       -0.9673028393
 C         -1.5837627552       -4.1816234489       -1.4483623791
 H         -1.3077423063       -5.1890744693       -1.7236739288
 H         -1.1000797042       -3.4167740796       -2.0345320692
 H         -3.6625325559       -4.7733420865       -0.9096212892
 H         -3.4561288839       -3.0034441568       -1.2300321796
 H         -1.7559343160       -4.7205484982        0.6874590510
