  62
        -98.94321454
 C          0.9430526461        1.7438876977       -0.3476593466
 C         -0.2316349183        1.5203878472       -1.1001380390
 C         -1.4902516065        2.0505313587       -0.5439933495
 C         -1.4597500490        2.6597872497        0.6553100844
 C         -2.6197398570        3.2535342248        1.4086441752
 C         -3.4779502514        2.1902966227        2.1199324581
 C         -3.6594099221        0.8829785338        1.3507885589
 H         -2.6728797422        0.4859677702        1.0992663794
 H         -4.1201989153        0.1583622501        2.0291250114
 C         -4.5363369497        0.9748706837        0.1029412425
 H         -5.5564521614        1.2176424343        0.4115784526
 H         -4.5597952911       -0.0157240205       -0.3593757427
 C         -4.1090028677        1.9968842140       -0.9498875397
 H         -4.2899381010        3.0055663468       -0.5884831836
 H         -4.7578691084        1.8562626991       -1.8196557447
 C         -2.6758922678        1.8596739383       -1.4581323651
 H         -2.5434853849        0.8653323050       -1.8971536084
 H         -2.5384068025        2.5663233766       -2.2863583793
 H         -4.4539030231        2.6225067840        2.3478542132
 H         -2.9878941989        1.9414253881        3.0642380818
 H         -3.2203846148        3.8562650194        0.7326802049
 H         -2.1981507649        3.9205127237        2.1637311129
 O         -0.3148929823        2.7874194483        1.3824528132
 C          0.9037167191        2.3290263058        0.9167382783
 O          1.8555738067        2.5115070206        1.7010041807
 O         -0.2327080799        0.9047145187       -2.2014686241
 C          2.2679431511        1.2259535734       -0.8829458395
 C          2.7279232294        0.0986924594        0.0071210574
 C          3.9643083398        0.0473766729        0.6352439191
 C          4.2651608391       -0.9975628599        1.4930572168
 C          3.3429469019       -1.9946473199        1.7520456650
 C          2.1075489422       -1.9589125272        1.1136657782
 C          1.8250934455       -0.9341574762        0.2281571195
 H          0.8663755236       -0.9067631919       -0.2685270046
 N          1.1436538070       -2.9535073823        1.3314714787
 S         -0.4819074711       -2.5743764318        1.2183140538
 O         -0.7661396528       -1.2354491881        1.6803453557
 O         -1.1473702806       -3.6410670338        1.9397401225
 C         -0.8606051245       -2.7419854683       -0.5130862659
 C         -1.8890763327       -1.9863134285       -1.0378561673
 C         -2.2226402537       -2.1386828567       -2.3737196832
 C         -1.5240378112       -3.0415759974       -3.1590251686
 C         -0.4961768541       -3.7969741513       -2.6162348227
 C         -0.1606608503       -3.6522285371       -1.2796252963
 H          0.6360374295       -4.2196611640       -0.8283255477
 H          0.0469122843       -4.4967115719       -3.2310115030
 H         -1.7813373322       -3.1531822650       -4.2004950319
 H         -3.0202336584       -1.5491572054       -2.7975471473
 H         -2.3962288032       -1.2849870826       -0.3944662351
 H          1.3418185319       -3.5985770489        2.0818288544
 H          3.5700831697       -2.7908359325        2.4444566212
 H          5.2266077826       -1.0246124623        1.9832677966
 H          4.6846460995        0.8312814306        0.4693582249
 H          2.0383024742        0.8083636096       -1.8743452743
 C          3.2761509181        2.3424905388       -1.0389609309
 C          4.3990246470        2.2044413311       -2.0221545119
 C          3.2734069947        3.1538274355       -2.2987119816
 H          3.4612655138        4.2146277616       -2.2279212474
 H          2.5536077388        2.8880552176       -3.0590169368
 H          5.3633025564        2.6154481761       -1.7644923933
 H          4.4467449730        1.2938650559       -2.5996498351
 H          3.4685824386        2.8649126736       -0.1089786810
