  62
        -98.93933595
 C         -2.5731588427       -0.2420065254        0.2348237523
 C         -2.6243633975        0.9321474779        1.0270141164
 C         -2.3650830242        2.2002789426        0.3353515386
 C         -2.0671161841        2.1828274922       -0.9760581571
 C         -1.7581461587        3.3969781698       -1.8027514234
 C         -0.2514891124        3.6826770680       -1.8465054195
 C          0.4210022014        3.6944256418       -0.4735972503
 H          0.4232106315        2.6766662259       -0.0752948700
 H          1.4659923328        3.9709880645       -0.6336994586
 C         -0.2108455166        4.6562293824        0.5424685501
 H          0.5903454469        5.1833953795        1.0648255331
 H         -0.8057201092        5.4065975923        0.0201955716
 C         -1.0704802219        3.9834001071        1.6144814816
 H         -1.2537757248        4.7112400291        2.4095923700
 H         -0.5171077817        3.1490071524        2.0533335244
 C         -2.4358608969        3.4617181555        1.1491520633
 H         -3.0189605228        3.2115056717        2.0403335672
 H         -2.9633194569        4.2454876785        0.6015990852
 H         -0.0992132900        4.6451847019       -2.3396518499
 H          0.2311491427        2.9080939932       -2.4478554376
 H         -2.2890705919        4.2531707938       -1.3901729950
 H         -2.1121963375        3.2162123333       -2.8194906538
 O         -1.9912181619        1.0376290955       -1.6983932130
 C         -2.1943105597       -0.2025053898       -1.1095735176
 O         -2.0281643261       -1.1598980677       -1.8883594292
 O         -2.8732704233        0.9182841398        2.2639317625
 C         -2.7574316845       -1.5760678192        0.9433260255
 C         -1.5424831217       -2.4187379003        0.6522841218
 C         -1.5633788028       -3.6437400566        0.0008155393
 C         -0.3791494814       -4.2815838713       -0.3304268786
 C          0.8451395117       -3.7093126523       -0.0337304245
 C          0.8716968467       -2.4985420950        0.6410570506
 C         -0.3103855197       -1.8760283523        0.9958395393
 H         -0.2787209550       -0.9152680701        1.4970356096
 N          2.1237998715       -1.8523728839        0.8841404803
 S          2.3789383041       -0.7066732967       -0.3441549025
 O          1.4818028913        0.4170090470       -0.1746640245
 O          2.3302108096       -1.3965507544       -1.6076360252
 C          4.0545111179       -0.2000924133        0.0000860065
 C          5.0696106677       -1.1052105065       -0.2435965646
 C          6.3745735652       -0.7420822999        0.0471725625
 C          6.6411873824        0.5130724376        0.5745109212
 C          5.6119458232        1.4107543443        0.8126564332
 C          4.3036242395        1.0523776619        0.5257369252
 H          3.4713520964        1.7183072934        0.6907123546
 H          5.8211317875        2.3866087184        1.2205149058
 H          7.6578142985        0.7941858094        0.7997260377
 H          7.1778593353       -1.4368425647       -0.1375943851
 H          4.8131037573       -2.0645742174       -0.6607800654
 H          2.0916928182       -1.3324359845        1.7538445456
 H          1.7717031299       -4.1718896981       -0.3313035180
 H         -0.4121282752       -5.2253561724       -0.8533917092
 H         -2.5069755303       -4.0793922089       -0.2854082701
 H         -2.7422263758       -1.3132850261        2.0148908475
 C         -4.0805964628       -2.2789355029        0.6938075232
 C         -5.3133383235       -1.4935140651        0.3615429944
 C         -4.7016571348       -2.3975296706       -0.6642742710
 H         -5.2182830709       -3.3146342612       -0.9076423961
 H         -4.1762225375       -1.9579545617       -1.4966683389
 H         -6.2482676665       -1.7844716994        0.8162143179
 H         -5.2016036906       -0.4266457138        0.2307636558
 H         -4.2160095425       -3.1239998918        1.3622575227
