  62
        -98.94472454
 C          2.0123570066        1.3693961800        0.3029478992
 C          2.6496531833        0.7591326961       -0.8044819617
 C          3.7994955989       -0.1000791137       -0.4854241724
 C          4.1765340672       -0.2507338347        0.7973388569
 C          5.2896095314       -1.1419614784        1.2654536141
 C          4.7692416112       -2.5458070472        1.6052192147
 C          3.8845916377       -3.1569003660        0.5181250188
 H          3.5996793701       -4.1565916008        0.8537551406
 H          2.9644072550       -2.5734144354        0.4344954815
 C          4.5488088217       -3.2510712623       -0.8626525853
 H          5.6309642452       -3.1630923488       -0.7594725093
 H          4.3421721949       -4.2374581785       -1.2832888332
 C          4.0509911088       -2.2207903306       -1.8783249363
 H          2.9584925550       -2.2419703453       -1.9175539697
 H          4.4181872007       -2.5128794994       -2.8657636476
 C          4.4966006525       -0.7734532733       -1.6336212431
 H          5.5800588088       -0.7386799322       -1.5032556475
 H          4.2371707859       -0.1924793559       -2.5234461925
 H          5.6255991950       -3.1973986341        1.7876266798
 H          4.1860498134       -2.4856750143        2.5272130037
 H          6.0504416583       -1.2028211460        0.4899622974
 H          5.7304594557       -0.7013019100        2.1612108526
 O          3.5423240020        0.3568407857        1.8329510291
 C          2.4373539957        1.1644997483        1.6147296811
 O          1.9249784594        1.6289120238        2.6541088459
 H         -0.0581874910       -0.1603132024        0.7560813534
 C         -0.6080544627        0.2164059128       -0.0982924180
 C         -0.2934505190        1.4734341512       -0.6013437330
 C         -1.0197982034        1.9525126129       -1.6830308502
 C         -2.0071911436        1.1748876919       -2.2646397692
 C         -2.2986347308       -0.0854748664       -1.7780604190
 C         -1.5932356981       -0.5651856820       -0.6808682353
 N         -1.8947093233       -1.8363705118       -0.1640446718
 S         -3.5070644899       -2.2494117342        0.0114202203
 O         -3.5370272128       -3.2014914701        1.0996763233
 O         -4.0270774261       -2.7199161902       -1.2482628368
 C         -4.3347429088       -0.7384020631        0.4762890656
 C         -5.3447956230       -0.2343819794       -0.3174119534
 C         -5.9558206249        0.9541399897        0.0492542357
 C         -5.5448037964        1.6168177214        1.1951114920
 C         -4.5304577120        1.0959342997        1.9842033064
 C         -3.9181919236       -0.0932974822        1.6239958652
 H         -3.1295601013       -0.5248175045        2.2199487104
 H         -4.2107647141        1.6120958804        2.8753517803
 H         -6.0167867114        2.5445465556        1.4774943583
 H         -6.7461483775        1.3604031914       -0.5610191233
 H         -5.6298672195       -0.7802992771       -1.2019563653
 H         -1.3587547056       -2.0880506787        0.6529222592
 H         -3.0496589010       -0.7103555155       -2.2334216723
 H         -2.5544549780        1.5546651400       -3.1136295320
 H         -0.8057747218        2.9308598592       -2.0799596528
 C          0.8014030269        2.2578178676        0.0813906323
 H          0.4438932552        2.5387648432        1.0829540274
 C          1.2025229291        3.5148746374       -0.6617076637
 C          0.4493412726        4.7921117372       -0.4462076304
 C          1.8328651985        4.6354777761        0.1074469545
 H          2.6404664892        5.1859109565       -0.3513397588
 H          1.9485126058        4.5007342828        1.1733741415
 H         -0.3774367518        4.7745111612        0.2474624399
 H          0.3085284475        5.4559402724       -1.2857716421
 H          1.5917311965        3.3066970586       -1.6515274541
 O          2.2785082219        0.9192204888       -1.9957305098
