  62
        -98.94266245
 C          1.9535879890        1.4327704197        0.1028273096
 C          1.7005355591        0.0633636696        0.3585655892
 C          2.8816030492       -0.7569177104        0.6624821591
 C          4.0988213891       -0.1894285703        0.7227696395
 C          5.3932622491       -0.8963015602        1.0195221695
 C          6.0250203494       -1.5735156198       -0.2047316907
 C          5.3161541696       -2.8394195297       -0.6889655812
 H          5.9846082498       -3.3264872994       -1.4017564112
 H          5.1820770895       -3.5227996900        0.1501213986
 C          3.9649033597       -2.5891075296       -1.3735914313
 H          3.9086561399       -3.1753672193       -2.2936171415
 H          3.8916133596       -1.5376913095       -1.6618203510
 C          2.7465310996       -2.9568149200       -0.5263636916
 H          2.7377933597       -4.0341688801       -0.3468771419
 H          1.8470999096       -2.7023771099       -1.0933983817
 C          2.6802972393       -2.2333815404        0.8248610186
 H          1.6858426992       -2.3857253707        1.2512381884
 H          3.4212383792       -2.6457059606        1.5091276686
 H          6.0719529794       -0.8477551495       -1.0202039504
 H          7.0507698494       -1.8376387097        0.0627588794
 H          6.0856149590       -0.1364744003        1.3884054198
 H          5.2372659591       -1.6352271105        1.8059575192
 O          4.2925751490        1.1432111798        0.5316057399
 C          3.2349545589        1.9794449998        0.2105865300
 O          3.5571354688        3.1750181299        0.0605607604
 O          0.5587915492       -0.4613596605        0.3389512288
 C          0.8337845190        2.3903333797       -0.2637779102
 C         -0.3709039511        2.1515894193        0.6142451695
 C         -0.2284439514        2.2965982589        1.9924600396
 C         -1.3007927915        2.0937670385        2.8381291693
 C         -2.5395981814        1.7457290085        2.3281622990
 C         -2.6960295711        1.6056274090        0.9544521690
 C         -1.6154477010        1.8145885093        0.1062853592
 H         -1.7605313808        1.6815528197       -0.9521464809
 N         -3.9581595710        1.3048137790        0.4178286587
 S         -4.2221352707        0.2102751993       -0.8153298817
 O         -3.4299333206        0.5573803898       -1.9668641415
 O         -5.6572005307        0.2289000293       -1.0015588819
 C         -3.7429876706       -1.3846177508       -0.1733814821
 C         -2.4074641006       -1.6664858807        0.0322319280
 C         -2.0635209606       -2.9033756209        0.5561383677
 C         -3.0467634805       -3.8306814611        0.8623607772
 C         -4.3840037905       -3.5296450411        0.6508593171
 C         -4.7371325906       -2.2950794710        0.1316980774
 H         -5.7628613506       -2.0181463211       -0.0511933026
 H         -5.1493744305       -4.2508349913        0.8889911368
 H         -2.7690232205       -4.7911435112        1.2674792670
 H         -1.0204325306       -3.1219163708        0.7210009078
 H         -1.6462693507       -0.9388475306       -0.1988305817
 H         -4.6900689611        1.2202213687        1.1082982585
 H         -3.3792237714        1.5873797182        2.9879695789
 H         -1.1730272617        2.2044116882        3.9045466394
 H          0.7416353185        2.5634272989        2.3907048598
 H          1.2249608988        3.3946180297       -0.0288693699
 C          0.4942369992        2.3904755801       -1.7473168103
 C          1.5295272294        2.0809824306       -2.7859375302
 C          0.4019405795        1.1253190004       -2.5438997007
 H         -0.3812858104        1.0409962705       -3.2835300608
 H          0.6156258395        0.1987278202       -2.0349735609
 H          1.5303035295        2.6613748409       -3.6963469500
 H          2.5172173094        1.8063037506       -2.4441490701
 H         -0.2134008508        3.1743947801       -2.0012005401
