  62
        -98.94075405
 C          2.0188848616        1.3388808311        0.3698529831
 C          2.4966301454        0.6335828555       -0.7626677790
 C          3.6996933085       -0.1869054383       -0.5450919064
 C          4.2597137450       -0.2360510873        0.6763621699
 C          5.4506657580       -1.0717198740        1.0442351400
 C          5.0208298235       -2.4527574724        1.5585968326
 C          4.0067989930       -3.1591466041        0.6583586753
 H          3.8004045343       -4.1349960897        1.1035789460
 H          3.0686555453       -2.5988665086        0.6666253696
 C          4.4690139532       -3.3472372602       -0.7933979326
 H          4.2304194803       -4.3657487893       -1.1069332311
 H          5.5521531895       -3.2350768262       -0.8544838297
 C          3.8043711594       -2.4049857627       -1.7990750361
 H          4.0340787487       -2.7660808937       -2.8051164396
 H          2.7183179825       -2.4456265966       -1.6790202382
 C          4.2425078657       -0.9365782042       -1.7289529067
 H          5.3323243997       -0.8755722823       -1.7589393685
 H          3.8441522405       -0.4308585374       -2.6134551816
 H          4.5733464115       -2.3303791683        2.5477894192
 H          5.9113145168       -3.0750350292        1.6637052752
 H          6.0947556339       -1.1806429426        0.1739611534
 H          6.0029554882       -0.5565445308        1.8320616016
 O          3.7609234231        0.4377154168        1.7443359605
 C          2.6216659562        1.2173357144        1.6241937375
 O          2.2436033754        1.7372248763        2.6934030798
 H         -0.2167505549       -0.1629614351        0.9422775549
 C         -0.7108324098        0.2283716171        0.0605114051
 C         -0.3204232169        1.4668124235       -0.4365537988
 C         -0.9644754437        1.9599132581       -1.5626683409
 C         -1.9521052876        1.2167252785       -2.1865885740
 C         -2.3224505304       -0.0235124269       -1.7021678096
 C         -1.6924449937       -0.5211760809       -0.5679050678
 N         -2.0679078665       -1.7766931613       -0.0605077807
 S         -3.7002281118       -2.1306410642        0.0348334031
 O         -3.8177994326       -3.0801430150        1.1196040717
 O         -4.1768332988       -2.5821340251       -1.2486364049
 C         -4.4911521925       -0.5895901781        0.4633672605
 C         -4.1203010055        0.0253984138        1.6428579667
 C         -4.6998705125        1.2381365998        1.9776479005
 C         -5.6364855069        1.8122753084        1.1314527930
 C         -6.0027171565        1.1795194435       -0.0460577915
 C         -5.4241934678       -0.0327006278       -0.3870928330
 H         -5.6772028320       -0.5573492890       -1.2939675650
 H         -6.7329359693        1.6272230605       -0.7006407197
 H         -6.0831152630        2.7582281413        1.3939764311
 H         -4.4159852923        1.7312248815        2.8936096391
 H         -3.3930799806       -0.4492210891        2.2824112165
 H         -1.5825901604       -2.0439420296        0.7826100697
 H         -3.0735361261       -0.6224888241       -2.1910938504
 H         -2.4348885020        1.6062118455       -3.0697405815
 H         -0.6741026691        2.9133304357       -1.9713130312
 C          0.7710590883        2.2034839400        0.3014416656
 H          0.4480683812        2.3135323509        1.3501490480
 C          1.0129299101        3.6114315347       -0.2220086924
 C          2.3498596549        4.2722807290       -0.0711918453
 C          1.8538749920        3.8866509227       -1.4308053951
 H          1.5426876601        4.6735259663       -2.1024296118
 H          2.3069545830        3.0433367496       -1.9267513787
 H          2.3771347585        5.3191775441        0.1916398566
 H          3.1495208326        3.6924762281        0.3670126120
 H          0.1469244779        4.2495721874       -0.0759788746
 O          1.9588835492        0.6756740032       -1.8982090692
