  62
        -98.93881734
 C         -2.7939811004       -0.1274197316       -0.3232229020
 C         -2.8501779396        0.7945122183        0.7543516502
 C         -2.4699724584        2.1768844109        0.4535794865
 C         -2.0996100639        2.5053250519       -0.7969246259
 C         -1.6497766713        3.8629618740       -1.2620563369
 C         -0.1639522281        4.1345141657       -0.9867232919
 C          0.1804805886        4.4309794522        0.4736354885
 H          1.1900335770        4.8464444579        0.4862156401
 H         -0.4941495720        5.1958466142        0.8607786006
 C          0.1489719476        3.1997944177        1.3901658180
 H          0.2093543603        2.2901671498        0.7863800111
 H          1.0344693197        3.1971685406        2.0311102279
 C         -1.0698747996        3.1163565730        2.3097279329
 H         -1.0085012298        2.1753257022        2.8629883790
 H         -1.0389369190        3.9361531731        3.0316908831
 C         -2.4219830989        3.1569197315        1.5863358387
 H         -2.6248876437        4.1648474539        1.2247860587
 H         -3.1994512735        2.8757014397        2.3012809754
 H          0.4172030276        3.2712709075       -1.3217475918
 H          0.1297030719        4.9955997138       -1.5918742730
 H         -2.2584894609        4.6368402030       -0.7935306972
 H         -1.8136586696        3.8936462234       -2.3413595831
 O         -2.1017931786        1.6072696819       -1.8141033266
 C         -2.3934732453        0.2647469777       -1.6008110702
 O         -2.2704419038       -0.4362290584       -2.6239639075
 O         -3.2042049826        0.4673286767        1.9192787256
 C         -3.0452064452       -1.5838055255        0.0329911957
 C         -1.7518477523       -2.1530635765        0.5623159003
 C         -1.6832482235       -2.8380482073        1.7687565938
 C         -0.4630324917       -3.2468021147        2.2812533992
 C          0.7141553498       -2.9633242522        1.6110030226
 C          0.6509061881       -2.2969706705        0.3969554644
 C         -0.5708441911       -1.9133884539       -0.1268816781
 H         -0.5989770448       -1.3788956328       -1.0667678090
 N          1.8614551918       -1.9141472462       -0.2575702358
 S          2.2169262357       -0.2993372459        0.1340247839
 O          1.9906218484       -0.1254275644        1.5459672962
 O          1.5100738810        0.5976899425       -0.7568733809
 C          3.9654701823       -0.2449468582       -0.2082304538
 C          4.4237881104        0.3316787857       -1.3760860452
 C          5.7849499629        0.3207543602       -1.6395655473
 C          6.6578052543       -0.2676435433       -0.7374065496
 C          6.1817315372       -0.8434958670        0.4314118568
 C          4.8228585485       -0.8344087783        0.7006517152
 H          4.4055558685       -1.2611480150        1.5974823924
 H          6.8638807936       -1.2987182294        1.1311388904
 H          7.7159486706       -0.2762195274       -0.9460350061
 H          6.1571758332        0.7696371782       -2.5464085564
 H          3.7090534645        0.7822792622       -2.0461939554
 H          1.7530094534       -1.9465514586       -1.2642990700
 H          1.6740213848       -3.2336973110        2.0189200150
 H         -0.4279302332       -3.7679351983        3.2257429315
 H         -2.5920122761       -3.0193223170        2.3239598471
 H         -3.7615396887       -1.5586781905        0.8696271702
 C         -3.6643431019       -2.4117363640       -1.0806477620
 C         -2.9140013561       -3.4703940574       -1.8264928003
 C         -3.9749105539       -3.8604318388       -0.8443633004
 H         -4.9068194489       -4.2565533412       -1.2173991806
 H         -3.6521271138       -4.2901566896        0.0918593540
 H         -3.1130429736       -3.5727710049       -2.8821164805
 H         -1.8831637868       -3.6470573401       -1.5611300194
 H         -4.3876350845       -1.8429135426       -1.6547279025
