  62
        -98.93654922
 C         -2.2763904362       -0.7049114792       -0.3231881177
 C         -3.2878428706       -0.7058564983        0.6736283895
 C         -4.0267596404        0.5485352726        0.8611460905
 C         -3.7038981182        1.6163885135        0.1095965260
 C         -4.4026030073        2.9435729281        0.1567966831
 C         -5.5560050406        3.0016250248       -0.8545270949
 C         -6.4925546491        1.7950478095       -0.7924917000
 H         -7.2834795663        1.9591151423       -1.5275552172
 H         -5.9450668706        0.9023805587       -1.1038009329
 C         -7.1196151554        1.5481173416        0.5867586652
 H         -7.0392597037        2.4483479822        1.1970333883
 H         -8.1834305988        1.3394977883        0.4554189438
 C         -6.5247392009        0.3637298095        1.3508782828
 H         -6.5173936537       -0.5206039979        0.7086676423
 H         -7.1770719885        0.1450313616        2.2004397963
 C         -5.1087538106        0.5691525311        1.9038702267
 H         -5.0698711128        1.4956975115        2.4803243189
 H         -4.8906302474       -0.2645636597        2.5775995738
 H         -6.1251619192        3.9158162037       -0.6766009599
 H         -5.1326241665        3.0548712214       -1.8602129514
 H         -4.7795169638        3.1124821348        1.1636483205
 H         -3.6782668481        3.7226941069       -0.0864081524
 O         -2.7189355941        1.5889328204       -0.8216368686
 C         -1.9811717218        0.4370113862       -1.0681513330
 O         -1.1165805208        0.5846799039       -1.9531074055
 H          0.4848554665       -0.2097137900       -0.5604809241
 C          0.6869281844       -1.0175235818        0.1283019342
 C         -0.2482914340       -2.0336401432        0.2714213983
 C          0.0276675388       -3.0695646700        1.1550974046
 C          1.2100044336       -3.0840421677        1.8753839531
 C          2.1394040402       -2.0698627259        1.7298086422
 C          1.8733358717       -1.0309240527        0.8469956737
 N          2.8076654932        0.0203737166        0.6913377749
 S          4.3191165715       -0.4332314217        0.0803181389
 O          4.1787469579       -0.9580155202       -1.2614836830
 O          4.9548067452       -1.3048957120        1.0346047353
 C          5.1493960901        1.1413948063        0.0485148222
 C          5.6694744477        1.6352840308        1.2294432701
 C          6.2910144202        2.8735953878        1.2204627941
 C          6.3800130848        3.5933334652        0.0379697338
 C          5.8530671372        3.0839877964       -1.1391663381
 C          5.2287449947        1.8462943715       -1.1367211023
 H          4.8102001686        1.4092111149       -2.0294638056
 H          5.9248203450        3.6447354110       -2.0572672329
 H          6.8648716254        4.5567846757        0.0327972449
 H          6.7032393719        3.2731826219        2.1329266043
 H          5.5830102234        1.0374530329        2.1215026831
 H          2.4313343431        0.7364653191        0.0812424221
 H          3.0692223182       -2.0781672641        2.2739389012
 H          1.4106082458       -3.8942201968        2.5600274129
 H         -0.6960682694       -3.8613823889        1.2831343964
 C         -1.5268901575       -2.0104896091       -0.5264920378
 H         -2.1920351343       -2.7790274835       -0.1020192623
 C         -1.3170704167       -2.3567605622       -1.9951400924
 C          0.0200383791       -2.4010862022       -2.6668271875
 C         -0.7098497131       -3.6754121470       -2.3736316554
 H         -1.1395532363       -4.2303351005       -3.1936673671
 H         -0.3279045363       -4.2916569942       -1.5733372804
 H          0.0751843052       -2.0553586317       -3.6880958708
 H          0.9035041828       -2.1731215179       -2.0901260076
 H         -2.1420869635       -2.0111430042       -2.6103703101
 O         -3.5623802410       -1.7183846074        1.3713133200
