  62
        -98.94626460
 C         -1.8077643703       -1.0572024098       -0.2922321197
 C         -3.1636137133       -1.3016193367        0.0326872597
 C         -4.1167796106       -0.2694671856       -0.3897001064
 C         -3.6770593627        0.8113517176       -1.0600075761
 C         -4.5298018753        1.9368709693       -1.5799651370
 C         -4.8432507324        3.0177008655       -0.5360825208
 C         -5.8454690375        2.6082874799        0.5438896732
 H         -6.1358534150        3.5181716895        1.0729357808
 H         -6.7426420113        2.2062958953        0.0721413952
 C         -5.3003817688        1.5979198590        1.5629846349
 H         -4.2093315465        1.5806274199        1.5103428110
 H         -5.5669643375        1.9186591001        2.5725677789
 C         -5.8267613733        0.1735008555        1.3869157200
 H         -6.9037805183        0.1554654251        1.5676899771
 H         -5.3497040492       -0.4639375608        2.1358341773
 C         -5.5535331226       -0.4341235955        0.0046912452
 H         -5.7642706748       -1.5053104721        0.0530347302
 H         -6.2077560944        0.0173243337       -0.7408093946
 H         -3.9083310626        3.3304692157       -0.0656116555
 H         -5.2505086051        3.8785343874       -1.0713393079
 H         -3.9701200065        2.3985956373       -2.3962158350
 H         -5.4609732390        1.5358034591       -1.9811666525
 O         -2.3662500337        1.0004472532       -1.3679550139
 C         -1.3989332609        0.0847618101       -0.9793971601
 O         -0.2381269674        0.3981119363       -1.3032812138
 H          2.0011066313       -2.0267270367       -0.1765074984
 C          1.6465042198       -1.4974534412        0.6913414227
 C          0.2926599463       -1.4226402014        0.9762276199
 C         -0.1116608461       -0.7241472942        2.1123328008
 C          0.8129735888       -0.1070926437        2.9312418052
 C          2.1633368656       -0.1658085234        2.6306402490
 C          2.5782972162       -0.8645341346        1.5047061108
 N          3.9458054136       -0.9660596865        1.1845501470
 S          4.4892535750       -0.4423129656       -0.3107049541
 O          3.8382675992       -1.1830669949       -1.3586262320
 O          5.9291248912       -0.5677537270       -0.2391237880
 C          4.0507655127        1.2860390638       -0.3687900058
 C          5.0233408798        2.2190915791       -0.0620295458
 C          4.6853444208        3.5619430059       -0.0413226718
 C          3.3817861784        3.9476561842       -0.3167152209
 C          2.4180577954        2.9980513042       -0.6173235348
 C          2.7485623804        1.6512885448       -0.6451509448
 H          2.0054879096        0.9056748456       -0.8812829842
 H          1.4009390296        3.2853465425       -0.8326992700
 H          3.1147900342        4.9926989788       -0.2984682455
 H          5.4349980093        4.3013869669        0.1903605862
 H          6.0237111638        1.8725707386        0.1418500740
 H          4.5572549284       -0.6019746512        1.9024332884
 H          2.8888134339        0.3208975934        3.2648580299
 H          0.4821166936        0.4299027419        3.8073681959
 H         -1.1674250723       -0.6728655785        2.3421849557
 C         -0.7588788899       -2.0757793768        0.1149276026
 H         -1.2939166314       -2.8166335356        0.7278928776
 C         -0.1987179921       -2.7740537188       -1.1060180681
 C          0.3441514768       -4.1661679449       -0.9928438785
 C         -0.9560844956       -3.9234435145       -1.6971332092
 H         -0.9887586556       -4.0215300076       -2.7719214597
 H         -1.8697144165       -4.2207461509       -1.2031525277
 H          1.2093171632       -4.4288731292       -1.5831288795
 H          0.3147406777       -4.6363503311       -0.0214517956
 H          0.2905081055       -2.0930728291       -1.7946069624
 O         -3.5560177635       -2.3296070523        0.6467416261
