  62
        -98.94878225
 C         -0.9433407017       -1.2800633122        0.0484088828
 C         -1.9157944534       -1.0315098883        1.0438637246
 C         -2.6435467154        0.2385486386        0.9282291288
 C         -2.3269868335        1.0878602102       -0.0663038262
 C         -3.0182495386        2.3950611759       -0.3248290138
 C         -4.1891412453        2.2214195400       -1.3021345345
 C         -5.1329338293        1.0766304842       -0.9343472532
 H         -5.9371773095        1.0671379003       -1.6730393462
 H         -4.5975722720        0.1291755977       -1.0282979003
 C         -5.7347987744        1.1784553192        0.4741299042
 H         -5.6378685689        2.1989165630        0.8466362629
 H         -6.8020925756        0.9545765819        0.4165362540
 C         -5.1320007869        0.2095389534        1.4932296050
 H         -5.1425009646       -0.8045274206        1.0856124160
 H         -5.7682329819        0.2110508659        2.3824103298
 C         -3.7032922549        0.5270025133        1.9538786094
 H         -3.6443188444        1.5649795011        2.2891170676
 H         -3.4766615913       -0.1188553747        2.8076883327
 H         -4.7482628407        3.1580371823       -1.3412767207
 H         -3.7832136478        2.0238258661       -2.2966171285
 H         -3.3751571471        2.8028208279        0.6191425246
 H         -2.2946719376        3.0888230645       -0.7554466636
 O         -1.3669126342        0.8274572048       -0.9886266564
 C         -0.6502183629       -0.3596861148       -0.9581163421
 O          0.1995536405       -0.4726865036       -1.8601180878
 H          1.0954277971       -0.5072070122        1.2788360498
 C          1.7951605336       -1.1834631390        0.8100018440
 C          1.3302139247       -2.3092793414        0.1437980530
 C          2.2597647329       -3.1695616817       -0.4296662270
 C          3.6138508361       -2.8975312588       -0.3464920756
 C          4.0700201183       -1.7593470784        0.2926971516
 C          3.1484701934       -0.8947490539        0.8723808336
 N          3.5687302344        0.2745622238        1.5273475540
 S          2.6781091351        1.6774620737        1.4062315818
 O          3.6060007249        2.7157550168        1.8098488090
 O          1.4755043683        1.5856731986        2.1985341824
 C          2.2626877584        1.9214171788       -0.3117297516
 C          3.1111979000        1.4865028857       -1.3089598113
 C          2.7840308728        1.7519565773       -2.6282861351
 C          1.6304014966        2.4571186823       -2.9278114192
 C          0.7955610979        2.8985607415       -1.9151109969
 C          1.1114209333        2.6263924238       -0.5947163333
 H          0.4778762624        2.9313721406        0.2242620523
 H         -0.1064806590        3.4407634352       -2.1504232558
 H          1.3750092790        2.6574407415       -3.9564218379
 H          3.4274212126        1.4006528661       -3.4187916293
 H          4.0041523712        0.9368690629       -1.0603339107
 H          4.5600918537        0.4609020913        1.4849164934
 H          5.1255973524       -1.5402804941        0.3467770335
 H          4.3236535659       -3.5752457181       -0.7954989962
 H          1.9215505434       -4.0541302703       -0.9440736508
 C         -0.1546959188       -2.5732986404        0.0943452058
 H         -0.4470990520       -3.0628116084        1.0363927747
 C         -0.5555499364       -3.4685544993       -1.0627327469
 C         -0.6117106821       -4.9570334667       -0.8956096929
 C         -1.8799979182       -4.1673746508       -1.0071808985
 H         -2.4623333205       -4.2449289843       -1.9130593088
 H         -2.4751545605       -4.0249388891       -0.1166930398
 H         -0.3247854313       -5.5808719592       -1.7287777457
 H         -0.3555608220       -5.3633685518        0.0713229981
 H         -0.2397724756       -3.0700667293       -2.0204781989
 O         -2.1633327379       -1.8350320271        1.9855021959
