  62
        -98.94478266
 C          1.0655580924        1.3525217398        0.4140378564
 C          1.4222016797        0.5793682085       -0.7186547620
 C          2.3335386296       -0.5476293458       -0.4596785643
 C          2.7739538296       -0.7915554100        0.7866767609
 C          3.6850572237       -1.9138741645        1.2059985035
 C          5.1760285840       -1.6229152564        0.9867988880
 C          5.6384054774       -1.6469286555       -0.4706004710
 H          6.7301495392       -1.6499643642       -0.4601384838
 H          5.3152195929       -2.5771994211       -0.9389231916
 C          5.1578652221       -0.4534827287       -1.3081369500
 H          4.8268212879        0.3485784300       -0.6444819961
 H          5.9916029115       -0.0600613406       -1.8939972820
 C          4.0309889625       -0.7792286498       -2.2888195412
 H          4.3914922690       -1.4819943627       -3.0435003193
 H          3.7415955582        0.1427563774       -2.7997210992
 C          2.7762450138       -1.3693105830       -1.6326454991
 H          1.9670143789       -1.3641524504       -2.3688752422
 H          2.9601487562       -2.3999665538       -1.3279774909
 H          5.4107734827       -0.6510617367        1.4268292930
 H          5.7392144584       -2.3811529122        1.5356223836
 H          3.5214726730       -2.0654160443        2.2753516009
 H          3.4101828697       -2.8276871269        0.6776665462
 O          2.4074415227       -0.0268132625        1.8492916579
 C          1.5603946309        1.0562061399        1.6883656605
 O          1.3251536104        1.6760133695        2.7443369685
 O          1.0168181608        0.7890981081       -1.8918762850
 C          0.1301489837        2.5491047441        0.3588824129
 C         -1.3151354537        2.1249144028        0.4790204630
 C         -2.1210650131        2.6702043031        1.4720830749
 C         -3.4518585128        2.3101473245        1.5784795490
 C         -3.9985999400        1.3895171816        0.7038812323
 C         -3.2008313391        0.8326550205       -0.2895795865
 C         -1.8680120504        1.2044584290       -0.4015739504
 H         -1.2664661582        0.7735864194       -1.1868867655
 N         -3.7401421682       -0.1066400055       -1.1853633925
 S         -2.8946446863       -1.5166806322       -1.4956584967
 O         -1.8301212786       -1.2790265206       -2.4328989727
 O         -3.9147718995       -2.4521578466       -1.9222940970
 C         -2.2500281008       -2.0132824901        0.0912683538
 C         -3.1427243550       -2.4783860190        1.0376061902
 C         -2.6691556204       -2.8301850579        2.2903804694
 C         -1.3173528244       -2.7079821849        2.5754825216
 C         -0.4343768169       -2.2438663520        1.6135171292
 C         -0.9029317392       -1.8901351514        0.3579331256
 H         -0.2440213647       -1.5210629039       -0.4122448898
 H          0.6165784814       -2.1450506294        1.8350273694
 H         -0.9460049220       -2.9765950676        3.5518151945
 H         -3.3512115766       -3.1960659586        3.0406935179
 H         -4.1833352464       -2.5730094099        0.7730524831
 H         -4.7168016470       -0.3109506842       -1.0269140397
 H         -5.0360987344        1.1031198784        0.7841422223
 H         -4.0663895973        2.7435969938        2.3523935404
 H         -1.6924679681        3.3746874657        2.1693483048
 H          0.3709958418        3.1521742393        1.2454301257
 C          0.3158518716        3.4193540096       -0.8692697341
 C         -0.0791023398        4.8627715410       -0.8027336492
 C          1.3697448286        4.4834117985       -0.8623685073
 H          1.9188834046        4.6688961554       -1.7732688932
 H          1.9629880642        4.5932619908        0.0341434491
 H         -0.5293015105        5.3124670664       -1.6743345399
 H         -0.4656156148        5.2351619894        0.1338522600
 H          0.1468379619        2.8926239609       -1.7991463746
