  62
        -98.93876745
 C         -1.9646997201       -1.3206874102       -0.0438311500
 C         -2.6148075500       -0.6757623100        1.0313451099
 C         -3.8142739099        0.1214522701        0.7084889898
 C         -4.2062112599        0.2059654799       -0.5767351903
 C         -5.3613985298        0.9841792700       -1.1484355004
 C         -5.0742743096        2.4918569499       -1.2367643106
 C         -4.4047169896        3.0923824901       -0.0033289207
 H         -3.4647648197        2.5695482200        0.1840866094
 H         -4.1551798995        4.1316399500       -0.2338293209
 C         -5.2529265196        3.0858383103        1.2663645693
 H         -4.6888558196        3.6194612604        2.0358444492
 H         -6.1736859196        3.6443362104        1.0838353192
 C         -5.6219753698        1.7071003405        1.8180481695
 H         -6.4302482598        1.2596144505        1.2461367095
 H         -6.0047684698        1.8550194407        2.8321206794
 C         -4.4541991999        0.7322803704        1.9323015096
 H         -3.6417749498        1.2115122804        2.4907303296
 H         -4.7684209900       -0.1150743295        2.5537384098
 H         -4.4112126196        2.6597404997       -2.0891515107
 H         -6.0135787196        3.0115176700       -1.4329364907
 H         -5.5259203698        0.6029730598       -2.1586552703
 H         -6.2619329498        0.7937350201       -0.5722565604
 O         -3.5300754699       -0.4123711803       -1.5868347302
 C         -2.4035025600       -1.1816614404       -1.3600976100
 O         -1.8994844100       -1.6748326506       -2.3861298799
 O         -2.2064148600       -0.7496466598        2.2232985199
 C         -0.7300317301       -2.1586413803        0.2361896302
 C          0.4644998499       -1.5487893905       -0.4552512999
 C          1.3174718099       -2.2570045307       -1.2902784098
 C          2.3810408800       -1.6205261709       -1.9082641599
 C          2.6249861201       -0.2764965009       -1.6983681301
 C          1.7925630101        0.4358262493       -0.8428504902
 C          0.7282992401       -0.2029635505       -0.2265521801
 H          0.0768672101        0.3546173897        0.4351642198
 N          2.0443466803        1.7961943393       -0.6021818904
 S          3.6281532003        2.2788302792       -0.3624878505
 O          3.5413371804        3.4506646693        0.4808194794
 O          4.2759596904        2.4697826489       -1.6364193505
 C          4.4075052702        0.9322633293        0.5116710398
 C          3.8699557401        0.5401077895        1.7216587898
 C          4.4446010300       -0.5246992205        2.3961685400
 C          5.5421529599       -1.1751305607        1.8529511301
 C          6.0746745000       -0.7646161309        0.6409819401
 C          5.5022638201        0.2981655491       -0.0394371201
 H          5.8806294502        0.6475162589       -0.9863011902
 H          6.9293718300       -1.2705169310        0.2219845102
 H          5.9839254598       -2.0064835606        2.3790960103
 H          4.0312404699       -0.8447947303        3.3391994000
 H          3.0179472102        1.0673506696        2.1206170097
 H          1.4211427303        2.2201968895        0.0684126495
 H          3.4356155401        0.2359100089       -2.1904669801
 H          3.0269625699       -2.1795377611       -2.5676977298
 H          1.1428455098       -3.3045659607       -1.4701735596
 H         -0.5696149202       -2.0847566501        1.3220123702
 C         -0.9741350403       -3.6084055903       -0.1227178796
 C         -0.2150720704       -4.6946109403        0.5773356506
 C         -1.6708618104       -4.4910774301        0.8676708205
 H         -2.3795960905       -5.2181727901        0.5005396806
 H         -1.9493734404       -4.0517243799        1.8145535805
 H          0.0759561495       -5.5670143604        0.0122300807
 H          0.4975154696       -4.3989647802        1.3321215705
 H         -1.2187793103       -3.7436614605       -1.1700516696
