  62
        -98.94033386
 C         -2.4871447652       -1.1252066299        0.0637094328
 C         -2.6553222637       -0.0141468782       -0.7973917958
 C         -4.0396402256        0.4384659352       -0.9851540212
 C         -5.0472021626       -0.2184644447       -0.3821735532
 C         -6.5117066664        0.1073243722       -0.4984755044
 C         -6.9849060979        1.2072755062        0.4618344845
 C         -6.5224245355        2.6217719480        0.1099637832
 H         -6.7708924300        2.8357942352       -0.9299076811
 H         -7.0983377257        3.3106294580        0.7311247189
 C         -5.0271278638        2.8764208119        0.3467894940
 H         -4.8970140356        3.8288586960        0.8654350821
 H         -4.6233629478        2.0994196305        0.9999987841
 C         -4.1841953596        2.9360034270       -0.9272129324
 H         -3.1386942276        3.0766435891       -0.6405381503
 H         -4.4883850026        3.7957600604       -1.5283047575
 C         -4.2685925798        1.6761358601       -1.7988583651
 H         -5.2336511282        1.6296611315       -2.3028907123
 H         -3.4796954054        1.7273600314       -2.5532305360
 H         -8.0772172423        1.1938401053        0.4588408332
 H         -6.6521730958        0.9557100444        1.4714713623
 H         -6.7424094046        0.3941653521       -1.5247172984
 H         -7.0534818947       -0.8113197363       -0.2633996429
 O         -4.8434777810       -1.3017789034        0.4149372992
 C         -3.5642060116       -1.7648032419        0.6762790721
 O         -3.5182505683       -2.7371972910        1.4574656156
 H          1.4562316976       -0.8977044751       -0.4230870034
 C          1.0574743529       -0.3104824100        0.3867850251
 C         -0.2122083363       -0.5573206697        0.8826203301
 C         -0.6814955582        0.2279316870        1.9331767994
 C          0.0962717932        1.2389460590        2.4621817959
 C          1.3660072370        1.4795242217        1.9669073344
 C          1.8448880145        0.7011522738        0.9204555739
 N          3.1177943030        0.9389779948        0.3783538525
 S          4.0165179007       -0.3661255097       -0.2003696168
 O          3.5924756115       -0.6738402891       -1.5428573354
 O          3.9776268621       -1.4562158051        0.7485338824
 C          5.6437449031        0.3632457808       -0.2392022682
 C          5.9622922628        1.2114732063       -1.2832586834
 C          7.2143301616        1.8047925840       -1.3059111625
 C          8.1219994809        1.5421511986       -0.2902849595
 C          7.7889800436        0.6871601567        0.7494070375
 C          6.5376236466        0.0915416285        0.7791243334
 H          6.2371903977       -0.5852446704        1.5627665104
 H          8.4979248684        0.4823551029        1.5353553099
 H          9.0961976966        2.0045085268       -0.3112122293
 H          7.4778565042        2.4679102862       -2.1140429228
 H          5.2283436624        1.3782320108       -2.0544979084
 H          3.6792140181        1.5594822994        0.9451564586
 H          1.9755634959        2.2682197907        2.3810967937
 H         -0.2852240370        1.8416675473        3.2728579448
 H         -1.6709857630        0.0339533543        2.3259975915
 C         -1.0942564361       -1.6576963744        0.3441268869
 H         -1.2083448307       -2.4172695083        1.1324032173
 C         -0.5340713445       -2.3263960386       -0.8937776246
 C          0.4824077762       -3.4195910851       -0.7661231195
 C         -0.9164014528       -3.7427903339       -1.1958146367
 H         -1.0890596880       -4.0226530029       -2.2241293545
 H         -1.5667901650       -4.2403898350       -0.4909625718
 H          0.7901296884       -3.7023970737        0.2296837016
 H          1.2762258273       -3.4711448226       -1.4967855307
 H         -0.4423826285       -1.6430193534       -1.7310634841
 O         -1.7044337607        0.5696908038       -1.3794971745
