  62
        -98.93962531
 C          2.3839334190        1.2760903626        0.0049851194
 C          3.0967810621        0.4917637087        0.9395158999
 C          3.7988025628       -0.6907090398        0.4123967554
 C          3.7074350066       -0.9825963497       -0.8988073978
 C          4.3370304395       -2.0920391021       -1.7150886140
 C          4.9239864094       -3.3266435908       -1.0351565208
 C          3.9031602265       -4.2147490314       -0.3249954054
 H          3.2612309443       -4.6800619960       -1.0773909811
 H          4.4443902411       -5.0116610021        0.1896668812
 C          2.9953291239       -3.5059479125        0.6775006901
 H          2.3321328166       -4.2566766233        1.1168859282
 H          2.3580903175       -2.7895420878        0.1528763005
 C          3.7158633590       -2.7929534792        1.8209386204
 H          4.3880857453       -3.4916776392        2.3222593144
 H          2.9563958360       -2.4831983711        2.5442167054
 C          4.5151760799       -1.5388106361        1.4234592062
 H          4.6340093186       -0.9182035792        2.3163593806
 H          5.5100586688       -1.7981750988        1.0701362281
 H          5.3864800787       -3.9244359428       -1.8251851262
 H          5.7174815673       -3.0401754815       -0.3513369800
 H          3.5663446965       -2.4073904732       -2.4258300118
 H          5.1263260221       -1.6158932066       -2.3073416183
 O          2.9946314867       -0.2010699843       -1.7620618077
 C          2.3057139011        0.9254348194       -1.3417235500
 O          1.6822067980        1.5116795647       -2.2457900125
 O          3.1449568816        0.7645673755        2.1702434994
 C          1.6130467752        2.4894705164        0.4946858254
 C          0.1378963061        2.2528133114        0.2801250567
 C         -0.6988636174        3.1325910164       -0.3920872367
 C         -2.0341011816        2.8193381765       -0.5839152968
 C         -2.5634953644        1.6344317412       -0.1073904177
 C         -1.7366682988        0.7507603856        0.5746703663
 C         -0.4025267733        1.0683346196        0.7675783492
 H          0.2421867714        0.3752190496        1.2951477741
 N         -2.2669135171       -0.4566070893        1.0717032334
 S         -3.0030600838       -1.4764195362       -0.0456341988
 O         -2.9043125206       -2.8007088666        0.5298684876
 O         -2.4456615398       -1.3074601132       -1.3681816704
 C         -4.7067010722       -0.9607158151       -0.0232277057
 C         -5.3754169524       -0.9795158240        1.1853309289
 C         -6.7028885510       -0.5838627487        1.2209492755
 C         -7.3360309015       -0.1816549792        0.0540774864
 C         -6.6515205473       -0.1718541570       -1.1516242695
 C         -5.3227405056       -0.5652475954       -1.1941916058
 H         -4.7471135388       -0.5670476546       -2.1062038761
 H         -7.1450149674        0.1411243576       -2.0576938395
 H         -8.3693025064        0.1260563638        0.0842257187
 H         -7.2386358226       -0.5903602202        2.1564206153
 H         -4.8467373875       -1.3028574918        2.0663934052
 H         -1.6035906326       -0.9810180376        1.6251380500
 H         -3.6005082596        1.3850710184       -0.2624588142
 H         -2.6713140838        3.5085893175       -1.1165867956
 H         -0.3035789001        4.0570199931       -0.7792745867
 H          1.7980348625        2.5348557645        1.5782107941
 C          2.1322890554        3.7591186566       -0.1434633699
 C          1.9686853113        5.0729259003        0.5590250943
 C          3.3227393514        4.4390520944        0.4613238470
 H          4.0545161142        4.8793421067       -0.1990930313
 H          3.7482679773        3.9972054032        1.3505567187
 H          1.7724957874        5.9535629961       -0.0335076857
 H          1.4750904375        5.0672282809        1.5189436514
 H          2.0629959370        3.7409758209       -1.2250977050
