  62
        -98.93917031
 C          2.2298406162        0.1435204220        0.2995599150
 C          3.2709969887        0.7001966351       -0.4837066702
 C          4.3929181778       -0.1991465924       -0.7876910969
 C          4.3719075698       -1.4743421774       -0.3626197882
 C          5.4269219641       -2.5155093032       -0.6209838682
 C          6.6054909618       -2.4670076561        0.3611879944
 C          7.5608842508       -1.2877617145        0.1737132345
 H          7.8785974592       -1.2413846296       -0.8683244379
 H          8.4475184578       -1.4955840432        0.7760114785
 C          6.9828232268        0.0692862356        0.5988606082
 H          7.7202191121        0.6073856993        1.1988033174
 H          6.1087827344       -0.0900444634        1.2346517696
 C          6.5897113487        0.9828316493       -0.5620768468
 H          7.4812722054        1.2580622526       -1.1298051893
 H          6.1583166452        1.8971577927       -0.1470360372
 C          5.5655098088        0.3719006815       -1.5272140346
 H          6.0373327832       -0.3943791876       -2.1415229012
 H          5.1926169893        1.1651375013       -2.1793888125
 H          7.1735921435       -3.3913731429        0.2335855773
 H          6.2104052946       -2.4580429408        1.3797276289
 H          5.7976148043       -2.4164925703       -1.6415630708
 H          4.9353469591       -3.4856528548       -0.5214437268
 O          3.3396149029       -1.9823843466        0.3626880787
 C          2.2672666739       -1.1877381716        0.7271659448
 O          1.4174313514       -1.7755387656        1.4281987815
 O          3.2894381387        1.8810813175       -0.9198611775
 C          1.0021249074        0.9282330420        0.7340674136
 C         -0.0204488349        1.0140221111       -0.3743765340
 C          0.2213185579        1.7385849857       -1.5371998433
 C         -0.7462436156        1.8222264176       -2.5212724012
 C         -1.9740419525        1.2049135573       -2.3599961734
 C         -2.2202663508        0.4682663520       -1.2072893733
 C         -1.2414897131        0.3720125664       -0.2280481759
 H         -1.4426791532       -0.2124519066        0.6585089104
 N         -3.4455221901       -0.1929131188       -1.0271231740
 S         -4.0745042665       -0.3120048252        0.5341841364
 O         -3.9034103418        0.9414137423        1.2339730238
 O         -3.5232401326       -1.4809523231        1.1725282878
 C         -5.7982577675       -0.5835686061        0.1672685108
 C         -6.2175668757       -1.8632539791       -0.1441367457
 C         -7.5505956503       -2.0727540319       -0.4598265862
 C         -8.4366246043       -1.0054732424       -0.4598739031
 C         -8.0014610971        0.2727145785       -0.1435078124
 C         -6.6693145774        0.4895597202        0.1721614997
 H         -6.2872425702        1.4634476762        0.4329536596
 H         -8.6933920665        1.0994259973       -0.1409429365
 H         -9.4736117313       -1.1718145974       -0.7051926518
 H         -7.8930461967       -3.0655630698       -0.7033478533
 H         -5.4939921547       -2.6616559561       -0.1214573120
 H         -4.1477371657        0.0848497668       -1.6990232568
 H         -2.7333127077        1.2839088139       -3.1232830239
 H         -0.5468279027        2.3863704319       -3.4199021173
 H          1.1769866847        2.2229128937       -1.6638380874
 H          0.5507427343        0.3440535109        1.5484227393
 C          1.3281683004        2.3115171212        1.2653486379
 C          0.2927358221        3.0287708506        2.0762891346
 C          1.5321309499        2.5040244126        2.7360912137
 H          2.2801312724        3.2099259253        3.0647812203
 H          1.4418630425        1.6348159015        3.3720594228
 H          0.1894854935        4.0958445043        1.9520918017
 H         -0.6409902542        2.5163508378        2.2600391738
 H          1.9413431185        2.8985783364        0.5948965389
