  62
        -98.93821523
 C         -2.6789826695       -1.2040786499        0.2347009100
 C         -3.0663289320       -0.2533327446        1.2142642582
 C         -4.2586308334        0.5444074386        0.9133897083
 C         -4.9286007788        0.3298601451       -0.2331723034
 C         -6.1790861854        1.0401566672       -0.6755047149
 C         -5.9211036025        2.3865325457       -1.3656960595
 C         -5.4698055234        3.5166069543       -0.4395365736
 H         -5.5377876816        4.4446813094       -1.0106270330
 H         -6.1641088795        3.5980964169        0.3973851777
 C         -4.0366300390        3.3676219380        0.0901353224
 H         -3.4945783794        2.6427421992       -0.5217167650
 H         -3.5122289487        4.3210532402       -0.0051023869
 C         -3.9424943752        2.9443433737        1.5561568061
 H         -2.8859024327        2.8316414268        1.8124664877
 H         -4.3622051398        3.7272828720        2.1917758326
 C         -4.6507513950        1.6220471796        1.8783924589
 H         -5.7315038286        1.7625736709        1.8735628608
 H         -4.3430078817        1.3019969674        2.8769254511
 H         -5.1758943189        2.2392949088       -2.1507712451
 H         -6.8542576448        2.6900466810       -1.8458862988
 H         -6.8380019098        1.1888426803        0.1804876818
 H         -6.6770818103        0.3781866348       -1.3872317122
 O         -4.5395746880       -0.6035276271       -1.1389994504
 C         -3.3960151303       -1.3737999664       -0.9507107363
 O         -3.1588660203       -2.1478346908       -1.8950074930
 O         -2.4449611397       -0.0895459922        2.2990276193
 C         -1.4377807932       -2.0215453747        0.5441156657
 C         -0.2033175628       -1.3455569225        0.0039603934
 C         -0.1104935377       -0.9670242417       -1.3319192734
 C          1.0337822370       -0.3520502466       -1.8063501809
 C          2.1012194701       -0.0942983442       -0.9634073809
 C          2.0179408424       -0.4638573229        0.3719308678
 C          0.8698008071       -1.0886375923        0.8441665457
 H          0.8038957355       -1.3649450030        1.8880636211
 N          3.0854250164       -0.1847792007        1.2381819125
 S          4.6509196439       -0.5398154120        0.7525948186
 O          4.6773561857       -1.6544786173       -0.1652020378
 O          5.3964517626       -0.6999575220        1.9815246566
 C          5.1937980249        0.9443605690       -0.0668676456
 C          5.7215555001        0.8727809530       -1.3410837885
 C          6.1516087814        2.0390406207       -1.9548610914
 C          6.0480036250        3.2492129594       -1.2864162855
 C          5.5175652453        3.3036574309       -0.0059424453
 C          5.0868486230        2.1414920973        0.6135704332
 H          4.6715257249        2.1421233493        1.6075705058
 H          5.4381080460        4.2467526582        0.5104397991
 H          6.3825234650        4.1555121625       -1.7660914766
 H          6.5643271082        1.9987938831       -2.9501340888
 H          5.7778366763       -0.0894966254       -1.8248388898
 H          2.9244139757       -0.4596619967        2.1960412659
 H          2.9927173522        0.3867902031       -1.3310907796
 H          1.0948865176       -0.0666892667       -2.8457366833
 H         -0.9426317503       -1.1648284752       -1.9909852941
 H         -1.3647952249       -2.0039123051        1.6435696690
 C         -1.5512869173       -3.4811532842        0.1279333136
 C         -0.7679283209       -4.0970963374       -0.9879295750
 C         -0.4330448654       -4.4344954909        0.4320715731
 H         -0.6751972660       -5.4176530832        0.8061399900
 H          0.4777728601       -4.0192785582        0.8383374443
 H         -1.2660096684       -4.8355636284       -1.5971852728
 H         -0.0794876522       -3.4753309995       -1.5378264339
 H         -2.5593269610       -3.8594049964        0.2653793906
