  62
        -98.92745389
 C         -2.2434065669       -0.0446405338       -0.7242878511
 C         -3.2749310656        0.8153754329       -0.2782898565
 C         -4.5853694562        0.1860181989       -0.0011279998
 C         -4.7360292916       -1.1362292978       -0.1880349694
 C         -5.9569534023       -1.9932085899        0.0339250682
 C         -7.2974096399       -1.4276017237       -0.4602390486
 C         -8.2369267261       -1.0114734646        0.6729879482
 H         -9.2640625241       -1.0372423471        0.3022533436
 H         -8.1615153015       -1.7491448671        1.4745906049
 C         -7.9872228057        0.3829355029        1.2449277514
 H         -8.6204784891        0.4959631803        2.1280516000
 H         -8.3059500031        1.1337275440        0.5186219030
 C         -6.5387035671        0.6783332629        1.6390006921
 H         -6.0909775315       -0.1871148557        2.1261205462
 H         -6.5510566248        1.4863881775        2.3735442454
 C         -5.6613790535        1.1305882699        0.4619601257
 H         -6.2904933536        1.3941321038       -0.3930694058
 H         -5.1257996266        2.0457989915        0.7329405746
 H         -7.1207763541       -0.5905701155       -1.1338475870
 H         -7.7939343938       -2.2080484061       -1.0391715716
 H         -5.7384753752       -2.9323535835       -0.4794587835
 H         -6.0243025758       -2.2300204554        1.0987183782
 O         -3.7090641818       -1.9290162612       -0.6127416487
 C         -2.4573530348       -1.4151226527       -0.8851464229
 O         -1.6278746356       -2.2657948880       -1.2685151061
 O         -3.1347631625        2.0527199614       -0.1047302415
 C         -0.8423841415        0.4354858146       -1.0620449036
 C          0.0519612979        0.4597570169        0.1506227742
 C         -0.3657290990        1.0137518807        1.3566960947
 C          0.4899157577        1.0524336064        2.4425226177
 C          1.7804690061        0.5633450986        2.3422116968
 C          2.2047616280        0.0020637349        1.1437205214
 C          1.3349897774       -0.0591797663        0.0637662208
 H          1.6741174772       -0.5152980463       -0.8550630422
 N          3.5026055449       -0.5134784681        1.0051193608
 S          4.2710192516       -0.2911830524       -0.4841411342
 O          3.9726273847        1.0259787214       -0.9977115155
 O          3.9439073168       -1.4003043015       -1.3448279824
 C          5.9819569082       -0.3926244990        0.0067390595
 C          6.5535717351       -1.6397050498        0.1761109043
 C          7.8740013437       -1.7199642882        0.5890499242
 C          8.5962670700       -0.5593622531        0.8247629149
 C          8.0096264526        0.6847633017        0.6480765232
 C          6.6889730094        0.7725714442        0.2365676190
 H          6.1936918679        1.7170268435        0.0778178062
 H          8.5746939543        1.5849922119        0.8283215387
 H          9.6240056808       -0.6250759160        1.1451742113
 H          8.3345493852       -2.6852982961        0.7241310554
 H          5.9561606780       -2.5129522688       -0.0285203202
 H          4.1050484934       -0.2848544019        1.7839784457
 H          2.4517637078        0.6094856652        3.1862586021
 H          0.1530732129        1.4843055961        3.3729591226
 H         -1.3607624833        1.4252657644        1.4287733512
 H         -0.4352513160       -0.3253019508       -1.7486630912
 C         -0.8279120204        1.7623678236       -1.8110153227
 C         -0.3778060603        3.0533772812       -1.2042092242
 C          0.4752337714        2.3762616245       -2.2319669425
 H          0.5429234206        2.8116230489       -3.2179066907
 H          1.3894113960        1.9043794420       -1.8992846092
 H         -0.9160062486        3.9478195732       -1.4779657136
 H         -0.0433523549        3.0446245550       -0.1790333465
 H         -1.6445820383        1.8275536611       -2.5235571295
