  62
        -98.94759411
 C         -1.7345266351       -1.3739724725       -0.1980747486
 C         -2.8240847200       -0.7495966930        0.4503162098
 C         -3.3213637760        0.4844166270       -0.1698990836
 C         -2.7245822944        0.9479575104       -1.2835580220
 C         -3.1153292177        2.2046292818       -2.0056875019
 C         -2.3035984723        3.4095062910       -1.5124203103
 C         -2.2739763184        3.5543792003        0.0089827345
 H         -1.6994097274        2.7241293907        0.4278066995
 H         -1.7124700767        4.4639905059        0.2362479446
 C         -3.6565379668        3.6259988552        0.6723629383
 H         -4.4090200749        3.8944463992       -0.0703070812
 H         -3.6408174008        4.4211562883        1.4209369570
 C         -4.0884632526        2.3470674160        1.3923368769
 H         -4.9536265649        2.5845339573        2.0175463858
 H         -3.2850690055        2.0163330491        2.0563566903
 C         -4.4838764838        1.1712989264        0.4899089483
 H         -4.9614653330        0.4145637940        1.1195215831
 H         -5.2089937121        1.5066963964       -0.2543582257
 H         -1.2718116841        3.2978037655       -1.8541142184
 H         -2.7195072598        4.3141810230       -1.9608663770
 H         -2.9225350603        2.0611494646       -3.0704684516
 H         -4.1787621552        2.3853651415       -1.8595496073
 O         -1.6699082717        0.3302694311       -1.8696085956
 C         -1.1204078954       -0.8151924032       -1.3197127211
 O         -0.1177144408       -1.2448507935       -1.9217694726
 O         -3.3553634788       -1.2039743953        1.5021512746
 C         -1.1377678198       -2.6370889307        0.4017577391
 C          0.3054186582       -2.3645932202        0.7424066044
 C          1.3668127492       -3.1722016807        0.3562250753
 C          2.6729530360       -2.7869822514        0.6092100717
 C          2.9479942935       -1.5801100692        1.2267013393
 C          1.8910222841       -0.7816689315        1.6409813126
 C          0.5873578030       -1.1897929887        1.4292541505
 H         -0.2285727298       -0.5503598601        1.7441295625
 N          2.1710966995        0.5123780414        2.1761559520
 S          1.9571881537        1.6708650778        0.9588505796
 O          2.2776988203        2.9448087801        1.5689254059
 O          0.6379549477        1.5845422927        0.3706995969
 C          3.2147918622        1.2065064071       -0.2051664342
 C          4.5004619177        1.6652047705        0.0083373267
 C          5.5068337785        1.2622594779       -0.8538521911
 C          5.2112707949        0.4058403372       -1.9043222508
 C          3.9156969941       -0.0459300769       -2.1023734090
 C          2.9013609331        0.3546175476       -1.2456657037
 H          1.8849726832        0.0125367332       -1.3745275003
 H          3.6808280894       -0.7146563630       -2.9148476026
 H          5.9948473106        0.0872764079       -2.5736504260
 H          6.5153431120        1.6121191117       -0.7030409883
 H          4.6774061851        2.3290299000        0.8385611593
 H          1.5569063482        0.7559079754        2.9431665801
 H          3.9599113591       -1.2451149325        1.3859582238
 H          3.4866586214       -3.4211704167        0.2935121193
 H          1.1710759234       -4.0950903315       -0.1648423090
 H         -1.6960540032       -2.8148307738        1.3328944592
 C         -1.3342553856       -3.8178059916       -0.5243757277
 C         -1.4083356581       -5.2081707626        0.0308134679
 C         -2.6429273033       -4.5470590669       -0.5018188004
 H         -3.0549078343       -4.8948794998       -1.4370847088
 H         -3.3880270732       -4.2053937011        0.2018588818
 H         -0.9748152475       -6.0151107462       -0.5401269014
 H         -1.3183660332       -5.3246936846        1.1001563831
 H         -0.8592739692       -3.6725536496       -1.4880746064
