  62
        -98.93565033
 C          2.4349532637        1.0310607135        0.4185686057
 C          2.5543451389       -0.1510803550       -0.3497347017
 C          3.7420270202       -0.9772614999       -0.0785923343
 C          4.6114037880       -0.5869946748        0.8712012106
 C          5.9036379263       -1.2759172925        1.2066613855
 C          6.9713633952       -0.9355285167        0.1472663430
 C          7.4343067271       -2.1297909442       -0.6874709569
 H          8.0108565850       -1.7371768739       -1.5278125972
 H          8.1069906088       -2.7441055137       -0.0852621860
 C          6.3252128548       -3.0393018767       -1.2251099648
 H          5.9879271790       -3.7128463532       -0.4359268520
 H          6.7753565198       -3.6662679592       -1.9977559248
 C          5.1022973925       -2.3282058138       -1.8188948677
 H          5.3664834315       -1.3258882150       -2.1568517267
 H          4.7806301729       -2.8861637924       -2.7006516727
 C          3.8880090538       -2.2444431889       -0.8748582829
 H          2.9743152668       -2.3026462644       -1.4738740154
 H          3.8915736833       -3.1032952441       -0.1981052047
 H          7.8445570775       -0.5016579594        0.6368618785
 H          6.5660538570       -0.1646418335       -0.5115588592
 H          6.2160646121       -0.9202771207        2.1886621205
 H          5.7446858197       -2.3506321141        1.2590883734
 O          4.4500509562        0.5477129176        1.6013562549
 C          3.3649791182        1.3828086400        1.3960847208
 O          3.3382490740        2.3866485985        2.1367299370
 H         -0.9705249977        1.6132972280       -1.4059262698
 C         -1.0692014312        1.1424004518       -0.4403126100
 C         -0.0346976282        1.2198838745        0.4773394081
 C         -0.1992222639        0.6058545967        1.7166436191
 C         -1.3612841351       -0.0761546191        2.0195301568
 C         -2.3866803084       -0.1639246099        1.0934181351
 C         -2.2373672582        0.4508522915       -0.1409954834
 N         -3.2706129359        0.3599471476       -1.0876490730
 S         -4.8375959052        0.7193031489       -0.6113764876
 O         -5.5192958718        1.1114568431       -1.8257079361
 O         -4.8549157655        1.6752604585        0.4714862998
 C         -5.4924604414       -0.8414863418       -0.0590590528
 C         -6.0392214413       -0.9495360377        1.2045348104
 C         -6.5555367585       -2.1707256351        1.6093199192
 C         -6.5170320812       -3.2559278962        0.7473635030
 C         -5.9664602674       -3.1302184692       -0.5195229929
 C         -5.4497917428       -1.9120222664       -0.9306103685
 H         -5.0167339240       -1.7728788342       -1.9071224977
 H         -5.9378904083       -3.9766856705       -1.1866943263
 H         -6.9184439575       -4.2054372917        1.0646569793
 H         -6.9840873285       -2.2704244534        2.5936723268
 H         -6.0427776174       -0.0801447289        1.8427043691
 H         -3.0524358974        0.7855582527       -1.9767153812
 H         -3.2941695361       -0.6988140634        1.3210530052
 H         -1.4709860095       -0.5476533229        2.9844636121
 H          0.6027898018        0.6730841240        2.4397508788
 C          1.2526022716        1.9595439015        0.2043826115
 H          1.3500742430        2.7528802527        0.9597570812
 C          1.3226351975        2.5881434155       -1.1713714792
 C          0.6534030405        3.9036068882       -1.4312416269
 C          2.1483183499        3.8232316304       -1.3620517622
 H          2.7137494793        3.9300402630       -2.2756263458
 H          2.6445893504        4.2277619312       -0.4918199734
 H          0.1310264902        4.3696781148       -0.6091801121
 H          0.1943314089        4.0700172665       -2.3944372253
 H          1.3351288566        1.8524184654       -1.9674280731
 O          1.7147273566       -0.5003379742       -1.2201724295
