  62
        -98.94497359
 C         -0.8453594608       -1.0571398589        0.7668010499
 C         -1.1605850005       -0.5347052900       -0.5123732206
 C         -2.1180038006        0.5812998599       -0.5186822318
 C         -2.5065007410        1.1394481908        0.6400101076
 C         -3.4778604512        2.2777655909        0.7944218963
 C         -4.9480794911        1.8349316307        0.7956428362
 C         -5.4969896307        1.3900159395       -0.5609340736
 H         -6.5815674307        1.3181170595       -0.4575815839
 H         -5.2921492805        2.1601390289       -1.3050639542
 C         -4.9590415504        0.0388747192       -1.0533425723
 H         -4.5142221806       -0.5037943801       -0.2158103717
 H         -5.7874793602       -0.5701741012       -1.4220575221
 C         -3.9319681700        0.1393477283       -2.1816311020
 H         -4.4069143098        0.5577035976       -3.0716587525
 H         -3.5921635698       -0.8703194118       -2.4263383711
 C         -2.7009170702        0.9889381987       -1.8375469724
 H         -1.9394192899        0.8211725082       -2.6021834920
 H         -2.9702414203        2.0438527787       -1.8288964133
 H         -5.0684150613        1.0258318813        1.5201122069
 H         -5.5437939613        2.6819823709        1.1438752953
 H         -3.2614854415        2.7471949617        1.7565247160
 H         -3.3192902410        3.0106475502        0.0034582458
 O         -2.0269982914        0.7256033319        1.8447058381
 C         -1.2343113513       -0.4069558380        1.9400122193
 O         -0.9329047916       -0.7208052470        3.1101986596
 H          1.9847830090       -0.6108301184        1.0684865705
 C          2.1235612394       -1.2956221690        0.2436838811
 C          1.1757969195       -2.2856294093        0.0153330016
 C          1.3773736999       -3.1744911502       -1.0321442076
 C          2.4967829802       -3.0600654607       -1.8369373773
 C          3.4303387200       -2.0639624905       -1.6183119779
 C          3.2402380496       -1.1739964196       -0.5665651787
 N          4.1785668094       -0.1660762093       -0.3099580392
 S          3.7954767690        1.2016255814        0.5485236696
 O          4.8600713590        2.1285527312        0.2241101791
 O          3.6489502686        0.8904307725        1.9492196098
 C          2.2629303291        1.8429805607       -0.1024852715
 C          1.3430637988        2.3703012013        0.7807755478
 C          0.2013370689        2.9749287908        0.2821853069
 C         -0.0037832007        3.0337981396       -1.0868726632
 C          0.9189979897        2.4829945690       -1.9610079424
 C          2.0682855696        1.8874194195       -1.4679127416
 H          2.8059220598        1.4629501391       -2.1290573910
 H          0.7486684000        2.5190652381       -3.0248088525
 H         -0.8882369306        3.5128588592       -1.4744705439
 H         -0.5207032913        3.3948157413        0.9643641263
 H          1.5350972585        2.2942520522        1.8400447979
 H          4.8738689896       -0.0110444598       -1.0234387691
 H          4.2990485202       -1.9715742209       -2.2517595877
 H          2.6398522905       -3.7512299114       -2.6535951267
 H          0.6448988301       -3.9379401704       -1.2356658672
 C         -0.0207241808       -2.3216418287        0.9313010213
 H          0.3527354989       -2.2890073778        1.9685307813
 C         -0.8388899806       -3.5990541389        0.8004096520
 C         -2.2676821407       -3.6439554486        1.2516726216
 C         -1.9386006903       -3.7500112898       -0.2054534182
 H         -2.0628790700       -4.7078594802       -0.6889354374
 H         -2.1526643801       -2.9075668004       -0.8437444989
 H         -2.6152379908       -4.5250199083        1.7699608522
 H         -2.7048882509       -2.7249578284        1.6152649807
 H         -0.2433023106       -4.4823225186        1.0098803530
 O         -0.6966523001       -0.9725387508       -1.5942353701
