  62
        -98.94039315
 C         -2.6310286375       -1.3194380824       -0.0315207732
 C         -2.4892060772       -0.1778662950       -0.8564147920
 C         -3.7179321945        0.5910810191       -1.0914432244
 C         -4.8815257005        0.1753754973       -0.5586384843
 C         -6.2224535461        0.8353161142       -0.7336620969
 C         -6.4807945627        1.9923986442        0.2409322117
 C         -5.6868538663        3.2685854356       -0.0406678323
 H         -5.8238399406        3.5582405202       -1.0829085026
 H         -6.1195581384        4.0582324312        0.5767403883
 C         -4.1876537433        3.1637427844        0.2732175603
 H         -3.8679269903        4.0483447274        0.8287668370
 H         -4.0085716739        2.3009270487        0.9191556568
 C         -3.2870499291        3.0536359111       -0.9573306016
 H         -3.3540618516        3.9729947527       -1.5435180028
 H         -2.2533681622        2.9465798473       -0.6166240901
 C         -3.6102870986        1.8654378609       -1.8728924668
 H         -4.5307888526        2.0551395317       -2.4246167136
 H         -2.7900780022        1.7500914989       -2.5856548776
 H         -6.2688568577        1.6484914399        1.2559290978
 H         -7.5450346561        2.2327699457        0.1868763860
 H         -6.3243097250        1.1920349756       -1.7588390234
 H         -6.9738000805        0.0626341119       -0.5571401810
 O         -4.9779512892       -0.9418971478        0.2104125403
 C         -3.8575453414       -1.6983441646        0.5136365418
 O         -4.0801273335       -2.6705723375        1.2635283701
 H          1.2428322090       -1.8147674044       -0.3564785666
 C          0.9414022064       -1.2432745331        0.5072999404
 C         -0.3648900325       -1.3155152183        0.9605591872
 C         -0.7243275192       -0.5611547222        2.0748815714
 C          0.1982274115        0.2486748537        2.7073785266
 C          1.5028998122        0.3205544711        2.2496978209
 C          1.8732489698       -0.4290254038        1.1427635296
 N          3.2024152484       -0.3972660226        0.6824131745
 S          4.0276739605        1.0754020424        0.6800807087
 O          4.4381357832        1.3715137842        2.0301534769
 O          3.2449772942        2.0962485431        0.0199510665
 C          5.4509815250        0.6430427348       -0.3009871154
 C          6.5259415154        0.0339284346        0.3180807385
 C          7.6209466242       -0.3313497837       -0.4486204271
 C          7.6223127511       -0.0840044308       -1.8134049427
 C          6.5366409003        0.5295201954       -2.4202641313
 C          5.4376026911        0.8963357655       -1.6594974637
 H          4.5754498638        1.3829190683       -2.0875322924
 H          6.5415556946        0.7231279615       -3.4809038269
 H          8.4759060570       -0.3684041657       -2.4082246184
 H          8.4681646234       -0.8062673902        0.0192086411
 H          6.4832039331       -0.1299658452        1.3820470271
 H          3.3014685224       -0.8595813065       -0.2115150802
 H          2.2292988805        0.9561233177        2.7294859745
 H         -0.0981717453        0.8335189464        3.5657045750
 H         -1.7443290857       -0.6131743875        2.4326705648
 C         -1.4178344755       -2.1707257623        0.2976839974
 H         -1.7587675181       -2.9170875848        1.0297315559
 C         -0.9364161476       -2.8912157285       -0.9442117320
 C         -0.1914580589       -4.1859149377       -0.8240377511
 C         -1.5998932375       -4.1760467120       -1.3356677740
 H         -1.7711922210       -4.3689201006       -2.3840817138
 H         -2.3847557290       -4.5441361411       -0.6909494809
 H          0.6040853468       -4.3919069324       -1.5242434214
 H         -0.0164102409       -4.5702924594        0.1693376477
 H         -0.6609977013       -2.2094979780       -1.7409012684
 O         -1.3991135891        0.1783332250       -1.3760424428
