  62
        -98.94378938
 C          1.4511168078        0.9390071718       -0.4862208431
 C          2.5223313132        1.1134227145        0.4269912647
 C          3.4175486703       -0.0332594013        0.6197341577
 C          3.1618844073       -1.1790973286       -0.0371030109
 C          4.0070227878       -2.4173994367        0.0349297420
 C          5.0826720871       -2.4238575988       -1.0601714357
 C          5.8810570895       -1.1230852263       -1.1472651227
 H          6.6294042416       -1.2526607673       -1.9320198194
 H          5.2151362801       -0.3181717469       -1.4663959914
 C          6.5752805081       -0.7162208886        0.1599569937
 H          7.5972540850       -0.4062369808       -0.0679229837
 H          6.6387023623       -1.5754662532        0.8285589675
 C          5.9097671286        0.4486687291        0.8952482816
 H          5.7573725503        1.2800949882        0.2025674060
 H          6.5937063348        0.7935133497        1.6752947475
 C          4.5690174123        0.1339075389        1.5710279764
 H          4.6741017340       -0.7486607155        2.2059422700
 H          4.3087337678        0.9849403376        2.2074486846
 H          5.7608468940       -3.2582929824       -0.8724340678
 H          4.5945862540       -2.5923166946       -2.0228970382
 H          4.4719757177       -2.4747459355        1.0174592500
 H          3.3558353347       -3.2834690720       -0.0976439249
 O          2.1176244450       -1.3210857098       -0.8878990482
 C          1.2292537374       -0.2786404337       -1.1319876305
 O          0.3277180145       -0.5774537636       -1.9356855601
 O          2.7212685105        2.1919647605        1.0503725702
 C          0.5223706584        2.1268507632       -0.6622107596
 C         -0.5565982665        2.1266028301        0.3937435102
 C         -0.9735247599        3.3118946890        0.9890573328
 C         -1.9653014232        3.3006380542        1.9537939294
 C         -2.5503347130        2.1118997802        2.3497463949
 C         -2.1263004197        0.9170508228        1.7754049394
 C         -1.1459040092        0.9363169179        0.7939442595
 H         -0.8165575087        0.0060125704        0.3621164916
 N         -2.6599230439       -0.2993212427        2.2072619766
 S         -2.6269710158       -1.7224078780        1.3410339292
 O         -3.4235180753       -2.6222188277        2.1493352992
 O         -1.2689544213       -2.1337374543        1.0898650368
 C         -3.5105698668       -1.3811208010       -0.1694744334
 C         -4.8847643803       -1.2587890716       -0.0704362108
 C         -5.6214895009       -0.9852407808       -1.2097543635
 C         -4.9745661566       -0.8418756980       -2.4286705112
 C         -3.5980092903       -0.9715063974       -2.5108967824
 C         -2.8511966830       -1.2400881479       -1.3724418292
 H         -1.7767694366       -1.3291847429       -1.4213375568
 H         -3.0876450707       -0.8634662050       -3.4544291692
 H         -5.5455600080       -0.6307839268       -3.3190520905
 H         -6.6931775725       -0.8871728931       -1.1463317624
 H         -5.3495077306       -1.4004037076        0.8916732909
 H         -3.4379227206       -0.2430768764        2.8454210088
 H         -3.3141018879        2.1012781439        3.1118212974
 H         -2.2821477199        4.2268233256        2.4084564633
 H         -0.5002982665        4.2413907439        0.7090058884
 H          1.1540024810        3.0111282415       -0.4766580772
 C         -0.0414138916        2.2567019843       -2.0700459449
 C         -1.4650964673        1.9490513496       -2.4122170480
 C         -0.9885262594        3.3685083013       -2.4134243119
 H         -0.8656615185        3.8724375957       -3.3600408115
 H         -1.3246630831        4.0073888262       -1.6117350899
 H         -1.6573173304        1.4615437801       -3.3548791399
 H         -2.1194604445        1.6262555022       -1.6169767597
 H          0.6975254924        1.9998871107       -2.8220862425
