  62
        -98.93162358
 C         -1.7411903722       -0.2804810349       -0.8418165231
 C         -2.9157893100        0.5002147222       -0.9707136036
 C         -4.1848019176       -0.1712659538       -0.6231052164
 C         -4.1748201363       -1.4503466622       -0.2147204995
 C         -5.3429422111       -2.3331417346        0.1480103442
 C         -6.4570700522       -1.7197666502        1.0072645429
 C         -5.9899281785       -0.6644027056        2.0201650490
 H         -6.3922127629       -0.9144859487        3.0036827811
 H         -4.9015720927       -0.6782308760        2.1006306172
 C         -6.4578981441        0.7497870980        1.6681694099
 H         -7.4997327736        0.7034396977        1.3434664486
 H         -6.4242576917        1.3653946455        2.5703722695
 C         -5.6330390429        1.4670729881        0.6003761250
 H         -4.6483125739        1.7202627935        1.0024844684
 H         -6.1336816474        2.4094360599        0.3650689644
 C         -5.4162388598        0.6846451387       -0.7053506501
 H         -5.2285682722        1.4085168332       -1.5030431380
 H         -6.2958124146        0.1010746031       -0.9657702971
 H         -6.9366568157       -2.5449002230        1.5366323591
 H         -7.2155765911       -1.2796530564        0.3613284605
 H         -5.7778351255       -2.7186483489       -0.7788052861
 H         -4.9016850102       -3.1832939029        0.6737281086
 O         -3.0190630297       -2.1656285687       -0.1054268618
 C         -1.7911407670       -1.6061487557       -0.4045080079
 O         -0.8259939048       -2.3823196240       -0.2523722856
 O         -2.9339563106        1.6952000947       -1.3591655393
 C         -0.3498089956        0.2411918562       -1.1565964607
 C          0.2703289998        0.9429995308        0.0238397065
 C         -0.4334254408        1.8772153095        0.7766359961
 C          0.1758711049        2.5209299886        1.8383313001
 C          1.4997807079        2.2677106535        2.1521365361
 C          2.2125669562        1.3381442367        1.4045957644
 C          1.5871174966        0.6690984693        0.3620729083
 H          2.1376158529       -0.0708231136       -0.1977988359
 N          3.5553283670        1.0554059235        1.6881676838
 S          4.6302618538        0.8102277033        0.4262799829
 O          5.9255254227        1.1319895475        0.9850788617
 O          4.2393359355        1.5510522205       -0.7493863036
 C          4.5535839844       -0.9400942696        0.1148719563
 C          4.7931374316       -1.8011774549        1.1673235152
 C          4.7481649235       -3.1665951019        0.9379067721
 C          4.4670334892       -3.6452611942       -0.3329445484
 C          4.2325076763       -2.7677237991       -1.3799670422
 C          4.2766420665       -1.4005984235       -1.1568182385
 H          4.0949705462       -0.6843427326       -1.9432245649
 H          4.0117781775       -3.1413369580       -2.3670809967
 H          4.4289740848       -4.7086071298       -0.5095503726
 H          4.9293910109       -3.8535622168        1.7488018746
 H          5.0114122850       -1.3914176288        2.1393833496
 H          3.9605119158        1.6064947756        2.4305812088
 H          1.9783863562        2.7851929104        2.9697399237
 H         -0.3814112383        3.2414421055        2.4181927420
 H         -1.4554171100        2.1033220848        0.5137541868
 H          0.2542910800       -0.6594704268       -1.3522262101
 C         -0.2981365213        1.0919106624       -2.4193705028
 C         -0.1257721899        2.5775514504       -2.4142664155
 C          0.9984171591        1.6991368316       -2.8699005361
 H          1.2396062285        1.6737439479       -3.9222536187
 H          1.8582166079        1.6087177167       -2.2207491946
 H         -0.6761279154        3.1478073122       -3.1469477343
 H         -0.0281907793        3.0765226925       -1.4631003589
 H         -0.9383385703        0.6888897838       -3.1982459287
