  62
        -98.93747841
 C         -2.0112689500       -0.8540908244        0.4847867417
 C         -2.0325944660       -0.1452031611       -0.7384527656
 C         -2.2019363730        1.3149669572       -0.6440624866
 C         -2.2921556370        1.8862931604        0.5690720224
 C         -2.5017241729        3.3422552394        0.8825454761
 C         -3.9981917262        3.6560262072        1.0521058512
 C         -4.7336659123        4.0064153421       -0.2408158160
 H         -4.4077728533        4.9910499560       -0.5821051908
 H         -5.7967730009        4.0772631618       -0.0000991025
 C         -4.5542038048        3.0073117806       -1.3866434211
 H         -5.3811504199        3.1471088957       -2.0853948415
 H         -4.6240727361        1.9887199586       -1.0007704245
 C         -3.2294774742        3.1874171191       -2.1429660754
 H         -2.7797720350        4.1370962604       -1.8539166672
 H         -3.4305896490        3.2527005841       -3.2142113605
 C         -2.2087957322        2.0554789486       -1.9534017379
 H         -1.1997281526        2.4442201180       -2.1291563263
 H         -2.3786280781        1.2800022547       -2.7072734241
 H         -4.1031199201        4.4973352587        1.7401361122
 H         -4.4694959418        2.7888420291        1.5217493553
 H         -2.0498032730        3.9667658270        0.1176554008
 H         -1.9940932258        3.5296401612        1.8313315108
 O         -2.2563864263        1.1660835950        1.7256062801
 C         -2.1009780496       -0.2071107545        1.7147447559
 O         -2.0643012369       -0.7328455017        2.8483874746
 O         -1.9203245720       -0.7048925701       -1.8615351684
 C         -1.7878147325       -2.3537160999        0.4861460051
 C         -0.4746980611       -2.6920131596       -0.1813676199
 C         -0.2755820704       -3.8669160654       -0.8956047216
 C          0.9558282357       -4.1373284141       -1.4677351242
 C          2.0055849855       -3.2459597837       -1.3507866104
 C          1.8140351044       -2.0627523865       -0.6434658834
 C          0.5898778796       -1.8101152139       -0.0486467093
 H          0.4600803654       -0.8989770592        0.5176057960
 N          2.8424184256       -1.1095396275       -0.5643929466
 S          2.7624648062        0.1893077007        0.4959347346
 O          2.6671548759       -0.2686655785        1.8662089926
 O          1.7381417139        1.1005086485        0.0486772068
 C          4.3689349325        0.9057370853        0.2045977266
 C          5.3733748003        0.7488873649        1.1402402369
 C          6.6205509409        1.2974638471        0.8836226192
 C          6.8415380157        1.9862338685       -0.2992833411
 C          5.8231683652        2.1358567342       -1.2294120505
 C          4.5738768533        1.5918588581       -0.9779386059
 H          3.7492918097        1.6893641727       -1.6650135933
 H          5.9975313634        2.6741056142       -2.1470517066
 H          7.8125653512        2.4120044368       -0.4967561663
 H          7.4127125383        1.1855292457        1.6061717997
 H          5.1519718941        0.2100428142        2.0474590861
 H          3.7718021367       -1.4968734375       -0.6408222508
 H          2.9603336614       -3.4523846597       -1.8087977802
 H          1.0980871361       -5.0555148815       -2.0171316155
 H         -1.0854521775       -4.5697851318       -1.0045659840
 H         -1.7149478610       -2.6486108350        1.5446933688
 C         -2.9703254055       -3.0665272322       -0.1401457693
 C         -3.4081105164       -4.4072323990        0.3659262100
 C         -4.2370932020       -3.1920508867        0.6501537006
 H         -5.1795394697       -3.0747013886        0.1368807965
 H         -4.2331210677       -2.7910645741        1.6537877495
 H         -3.7865536938       -5.1274700343       -0.3437434181
 H         -2.8523526017       -4.8397561179        1.1843369952
 H         -3.0595745694       -2.8621672529       -1.2008327255
