  62
        -98.93569874
 C         -2.3302621411       -1.3238343341        0.2293073820
 C         -2.4931784521       -0.3475762543       -0.7798863356
 C         -3.3651594857        0.7982293077       -0.4535082904
 C         -3.9604449934        0.8453473081        0.7518178001
 C         -4.8756668819        1.9036799471        1.3148542423
 C         -5.9573421441        2.4568553469        0.3744256405
 C         -5.6981507936        3.8972622177       -0.0711220801
 H         -6.6512750084        4.3542724519       -0.3462351041
 H         -5.3022331399        4.4575589215        0.7785638866
 C         -4.7525944784        4.0500082969       -1.2613079459
 H         -5.2569780340        3.7123030228       -2.1691417393
 H         -4.5439410383        5.1155401022       -1.3827268571
 C         -3.4241405808        3.3007443283       -1.1410984495
 H         -3.0274133139        3.3869221516       -0.1299138413
 H         -2.7061851914        3.7844417938       -1.8067423824
 C         -3.5138194709        1.8215807196       -1.5459186259
 H         -4.4507215487        1.6366236167       -2.0788396486
 H         -2.7130773682        1.5846177817       -2.2535172051
 H         -6.0652259125        1.8050622230       -0.4909567459
 H         -6.9060778695        2.4376572241        0.9131955889
 H         -5.3438692720        1.4377280908        2.1850474739
 H         -4.2615671957        2.7238412220        1.6959869501
 O         -3.7684541038       -0.1209132684        1.6973816954
 C         -2.9491707224       -1.2119152176        1.4717762675
 O         -2.8509051730       -1.9944499114        2.4399529291
 H         -0.0610144419       -0.5706703249        1.1686562940
 C          0.5260033917       -1.0324629284        0.3830652677
 C         -0.0318366468       -2.0692006103       -0.3546880870
 C          0.7407104692       -2.6645889483       -1.3432635789
 C          2.0242786377       -2.2125374786       -1.5972082998
 C          2.5643739516       -1.1624535413       -0.8783056871
 C          1.8068363741       -0.5694775166        0.1234227326
 N          2.3357538714        0.5097354487        0.8513378304
 S          3.8816026420        0.3765675675        1.4901358188
 O          4.2170583866       -0.9972536927        1.7850663374
 O          3.9082396654        1.2981804788        2.6051591958
 C          4.9335056675        1.0004562241        0.1962442532
 C          5.9829212320        0.2333280975       -0.2701907817
 C          6.7930227574        0.7448990817       -1.2722008888
 C          6.5411527652        2.0076171543       -1.7861975222
 C          5.4846612233        2.7664743588       -1.3046900422
 C          4.6719385188        2.2615654564       -0.3024414454
 H          3.8433937867        2.8198287128        0.1006035323
 H          5.2913359503        3.7479166980       -1.7069016603
 H          7.1717204171        2.4032306075       -2.5666925314
 H          7.6151403686        0.1570267160       -1.6475195600
 H          6.1372372506       -0.7452602722        0.1557836844
 H          1.6976889400        0.8932300510        1.5330132893
 H          3.5593991642       -0.8014262870       -1.0805533017
 H          2.6105436715       -2.6810535567       -2.3728308433
 H          0.3360256821       -3.4806112110       -1.9189598268
 C         -1.4328825521       -2.5218997261       -0.0169587663
 H         -1.3904841112       -3.0714356896        0.9356556935
 C         -2.0452668774       -3.4213983224       -1.0712870361
 C         -1.8272079938       -4.9030473572       -1.0258772513
 C         -3.1677513567       -4.3318653759       -0.6767707178
 H         -3.9863334651       -4.4716220372       -1.3666751623
 H         -3.4687538095       -4.3244153507        0.3611545833
 H         -1.2209368032       -5.2960552392       -0.2236090138
 H         -1.7286131773       -5.4387319675       -1.9580059490
 H         -2.1080971179       -2.9396638712       -2.0401498612
 O         -1.9307650330       -0.4195293152       -1.9032157065
