  62
        -98.93588876
 C         -2.4960491654       -1.0199998996        0.5768426512
 C         -2.5803322455        0.2669871501        1.1685958413
 C         -3.8418086162        0.9908234497        0.9810586509
 C         -4.8473260542        0.4081980494        0.3036066460
 C         -6.2084555085        0.9989582589        0.0534593868
 C         -6.2687329432        1.9395276731       -1.1577384581
 C         -5.5883905398        3.2950347492       -0.9628651997
 H         -5.8916351143        3.9289699974       -1.7983602515
 H         -5.9607852159        3.7596488296       -0.0494287384
 C         -4.0548726980        3.2339106940       -0.9225332458
 H         -3.7153748938        2.2809677790       -1.3353575323
 H         -3.6412318324        4.0214256479       -1.5565170438
 C         -3.4488022018        3.4106716115        0.4700203725
 H         -2.3629673492        3.3104220462        0.3871706653
 H         -3.6664263978        4.4150327312        0.8404708656
 C         -3.9392427660        2.3910455481        1.5063800193
 H         -4.9638583227        2.6169889086        1.8015089598
 H         -3.2960608928        2.4607160618        2.3872579350
 H         -5.8268730764        1.4306094727       -2.0173270069
 H         -7.3235095863        2.1154767230       -1.3808094154
 H         -6.5459124665        1.5289369850        0.9445681808
 H         -6.8821953907        0.1591076067       -0.1289012145
 O         -4.7393166885       -0.8357507484       -0.2286156355
 C         -3.5618755030       -1.5718630826       -0.1361815254
 O         -3.6197975760       -2.6704118982       -0.7164880929
 O         -1.6432230992        0.7820198193        1.8382577965
 C         -1.1866412051       -1.7652061737        0.7602769902
 C         -0.2338173598       -1.4878404138       -0.3750537246
 C         -0.6354264343       -1.6071456638       -1.7022017996
 C          0.2564075727       -1.3523902475       -2.7277093180
 C          1.5580017788       -0.9722725341       -2.4521048428
 C          1.9715926026       -0.8551448553       -1.1299827325
 C          1.0736912009       -1.1123905511       -0.1025404996
 H          1.4001711906       -0.9961791912        0.9199895825
 N          3.3022125671       -0.5176497882       -0.8292270655
 S          3.6233350846        0.4662996022        0.5060613669
 O          3.5207533628       -0.3294106367        1.7029508922
 O          2.8127904284        1.6618904302        0.4488161143
 C          5.3340654449        0.8600465731        0.1939000846
 C          6.2948371191       -0.0868786193        0.4953327610
 C          7.6241500329        0.1998051719        0.2291992394
 C          7.9690612480        1.4213732982       -0.3302961069
 C          6.9942329233        2.3626526274       -0.6246783973
 C          5.6623031364        2.0814993897       -0.3628441593
 H          4.8709646119        2.7847904178       -0.5674067751
 H          7.2656354277        3.3127760849       -1.0558803673
 H          9.0046200639        1.6423617981       -0.5353252838
 H          8.3852348470       -0.5281569401        0.4593317295
 H          5.9804479432       -1.0174795964        0.9380326797
 H          3.8105413665       -0.1948199101       -1.6419127917
 H          2.2505804059       -0.7706002375       -3.2552040520
 H         -0.0671281361       -1.4466821291       -3.7534962170
 H         -1.6499843931       -1.9066833208       -1.9179817861
 H         -0.7414296325       -1.3268535300        1.6688946830
 C         -1.3697448314       -3.2543162367        1.0217193616
 C         -0.9750270169       -4.3209009809        0.0493737638
 C         -0.1722526174       -4.1154043188        1.2965225605
 H         -0.2343919184       -4.8515791461        2.0835588137
 H          0.7998920894       -3.6548522483        1.1975241236
 H         -1.6131421735       -5.1880265052       -0.0237287826
 H         -0.5430397205       -4.0191697774       -0.8914306033
 H         -2.2570604972       -3.4517512096        1.6149020152
