  62
        -98.94098382
 C          2.2040600170        1.0357960462        0.6208865622
 C          2.1807144646        0.0980268661       -0.4417053787
 C          3.0444792964       -1.0824264227       -0.2719582248
 C          3.7385101184       -1.2402414306        0.8688467544
 C          4.6998313652       -2.3590774042        1.1441966540
 C          6.1250357830       -1.9842538558        0.7133914455
 C          6.2134983745       -1.4130848347       -0.7018819532
 H          5.6937720913       -0.4527447426       -0.7326372653
 H          7.2675754870       -1.2143665231       -0.9067211388
 C          5.6444058751       -2.3302146793       -1.7934405188
 H          6.3410628626       -2.3486507297       -2.6340741647
 H          5.5647689969       -3.3504335610       -1.4163129819
 C          4.2886811503       -1.8892830675       -2.3486959760
 H          4.3384708088       -0.8385363458       -2.6453985741
 H          4.0827470474       -2.4735953004       -3.2494036693
 C          3.0920777289       -2.0679123441       -1.4054725145
 H          2.1792920129       -1.9005264425       -1.9856947247
 H          3.0711138687       -3.0921311140       -1.0266560287
 H          6.7526522118       -2.8740254597        0.7884901227
 H          6.5112178649       -1.2360659222        1.4095482106
 H          4.6945288155       -2.5610211377        2.2167410897
 H          4.3710630440       -3.2517175897        0.6153178360
 O          3.6725691253       -0.3590117247        1.8998075684
 C          2.9097574431        0.7938094777        1.8018929367
 O          2.9301422748        1.5070530240        2.8252902249
 H         -0.2940344583        0.6118150007        1.6953599078
 C         -0.7508459079        1.0791901507        0.8301648283
 C         -0.0164313256        2.0075842874        0.1018312295
 C         -0.6059175210        2.5905554996       -1.0113245264
 C         -1.8932335031        2.2429966434       -1.3826360218
 C         -2.6195448782        1.3181693467       -0.6556245077
 C         -2.0373883670        0.7247079854        0.4569732737
 N         -2.7691101328       -0.2103061018        1.2115985343
 S         -3.5221006495       -1.4751953370        0.4020723416
 O         -3.6520258271       -2.5243496080        1.3909921812
 O         -2.8299619611       -1.8236331192       -0.8166825723
 C         -5.1398170326       -0.8311617985        0.0281983811
 C         -5.5931176461       -0.8215801800       -1.2763077788
 C         -6.8577132107       -0.3196007750       -1.5424470124
 C         -7.6423493120        0.1599426324       -0.5048698737
 C         -7.1735748734        0.1399586173        0.8004196717
 C         -5.9109212391       -0.3612738724        1.0733380819
 H         -5.5105557105       -0.3986431932        2.0726680762
 H         -7.7867350006        0.5133110473        1.6047251571
 H         -8.6251639156        0.5514303865       -0.7147919147
 H         -7.2238400324       -0.3040960530       -2.5564436520
 H         -4.9448663770       -1.1997540880       -2.0509322583
 H         -2.2663636018       -0.5607039910        2.0144271419
 H         -3.6194828628        1.0413671432       -0.9470720057
 H         -2.3369135169        2.6975620872       -2.2553229077
 H         -0.0484875079        3.2953583613       -1.6057745141
 C          1.3839112600        2.3143620141        0.5743535161
 H          1.3152511366        2.6433358477        1.6248170221
 C          2.0469160963        3.4506466747       -0.1899470432
 C          3.5397061464        3.5413335768       -0.2920878619
 C          2.7219855400        3.2439958213       -1.5111365322
 H          2.6254540380        4.0150898571       -2.2615361751
 H          2.7359835861        2.2437327591       -1.9135736266
 H          4.0016531357        4.5131749503       -0.2037173664
 H          4.1205318505        2.7417068268        0.1450595658
 H          1.5197011869        4.3897139034       -0.0533922121
 O          1.4859206707        0.2279772327       -1.4817879978
