  62
        -98.93532305
 C         -2.7155896501       -0.7625184674       -0.2889259510
 C         -2.0596913546        0.2322101461       -1.0505400694
 C         -2.3928196932        1.6360132724       -0.7379764513
 C         -3.3254846343        1.9085166374        0.1923455620
 C         -3.9023326271        3.2194100842        0.6861794952
 C         -3.2752950140        4.5480242471        0.2744340623
 C         -1.9031094751        4.8237346559        0.8939778091
 H         -1.4667567443        5.6931633478        0.3982353503
 H         -2.0475497863        5.0793399420        1.9466941843
 C         -0.9061649917        3.6681977713        0.8434321386
 H         -1.3183288515        2.7995166922        1.3615389180
 H         -0.0108439265        3.9652707331        1.3966935110
 C         -0.4575350173        3.2389681132       -0.5510299995
 H          0.0059114747        4.0838533170       -1.0653747933
 H          0.3025323903        2.4631487622       -0.4142514309
 C         -1.5654362830        2.6681715916       -1.4489913200
 H         -2.1859635973        3.4608094792       -1.8582141228
 H         -1.0900765897        2.1541540477       -2.2895606838
 H         -3.2347385649        4.6197675234       -0.8085456701
 H         -3.9538835609        5.3338445184        0.6168792099
 H         -3.9145757802        3.1506480804        1.7787705578
 H         -4.9503856387        3.2160275893        0.3671574506
 O         -3.9822748700        0.9112735427        0.8563934380
 C         -3.6679064887       -0.4205993896        0.6743517333
 O         -4.3088700307       -1.2000431176        1.4079009158
 O         -1.2287935543       -0.0090883123       -1.9675717256
 C         -2.3955951376       -2.2476982778       -0.3992928174
 C         -1.0941773372       -2.5042366317        0.3230837536
 C         -1.0745760492       -3.1384059187        1.5600671038
 C          0.1103416886       -3.2809264909        2.2618038844
 C          1.2967697562       -2.7802335282        1.7546502237
 C          1.2840976125       -2.1436974968        0.5213935659
 C          0.1030235152       -2.0302863395       -0.1941218383
 H          0.1020853128       -1.5129604478       -1.1415967597
 N          2.4803472789       -1.5749660297        0.0110619799
 S          2.9421422918       -0.2006202497        0.8911864594
 O          3.3977589555       -0.6343832616        2.1880339370
 O          1.8785503601        0.7803094419        0.8883325186
 C          4.3213557104        0.3823363891       -0.0750673897
 C          4.1028458963        1.3393039269       -1.0473415534
 C          5.1720931990        1.7675271655       -1.8183354267
 C          6.4331540456        1.2306299284       -1.6072975389
 C          6.6361332823        0.2697392995       -0.6278859646
 C          5.5715794680       -0.1617962239        0.1471762075
 H          5.6815654060       -0.8993096670        0.9246402798
 H          7.6186434826       -0.1432544433       -0.4660918707
 H          7.2630173861        1.5658103343       -2.2091461025
 H          5.0164072024        2.5160069570       -2.5785988254
 H          3.1069054350        1.7349664809       -1.1721994597
 H          2.3370903153       -1.2797477912       -0.9483421786
 H          2.2188136696       -2.8472809878        2.3085603997
 H          0.1074503038       -3.7741463503        3.2222999734
 H         -2.0029237597       -3.4961707905        1.9825014498
 H         -3.1941074015       -2.7653200785        0.1483782369
 C         -2.3804304287       -2.7593495926       -1.8253511575
 C         -2.5065763662       -4.2326562225       -2.0662403791
 C         -3.6397701693       -3.3161340621       -2.4149285892
 H         -3.8487302194       -3.1238144108       -3.4565191700
 H         -4.5203904172       -3.3310621203       -1.7890997160
 H         -1.9361245639       -4.6737541008       -2.8690042913
 H         -2.6192197146       -4.8713768850       -1.2032139740
 H         -1.7360301042       -2.1926943594       -2.4835981026
