  62
        -98.93127109
 C          2.5547942404        1.1490664899        0.4947776392
 C          3.4184105003        0.7886465096       -0.5679189108
 C          4.5900128902       -0.0332940105       -0.2039138307
 C          4.7764745802       -0.4022255603        1.0738060994
 C          5.9090051902       -1.2002562203        1.6705889695
 C          6.4070324100       -2.4227124705        0.8882284497
 C          5.3234340499       -3.1745413105        0.1017368098
 H          5.3781012598       -4.2363871205        0.3488936400
 H          4.3337388899       -2.8220025203        0.3973699598
 C          5.4821328898       -3.0363956108       -1.4142397402
 H          4.9430397397       -3.8536305608       -1.8994507000
 H          6.5389104698       -3.1465034410       -1.6673947902
 C          4.9577548499       -1.7312558108       -2.0114547804
 H          5.2306247699       -1.7117671011       -3.0693118104
 H          3.8657190899       -1.7146825907       -1.9622256804
 C          5.4737936301       -0.4444563108       -1.3467205107
 H          6.5104965801       -0.5488914108       -1.0363738907
 H          5.4096336802        0.3617543491       -2.0825225708
 H          6.8632570999       -3.0966166704        1.6154358098
 H          7.1978238200       -2.1202582607        0.2031957596
 H          6.7484596102       -0.5204566103        1.8441731393
 H          5.5451664702       -1.5170006901        2.6510903895
 O          3.9118222703       -0.0406344700        2.0650629993
 C          2.7948145704        0.7295885301        1.8048751092
 O          2.1009902604        0.9811922904        2.8118614692
 H         -1.0747941095        1.8778093905        1.5519123092
 C         -1.0363267096        1.2161143203        0.6964800793
 C          0.1259793203        1.1459628701       -0.0569735607
 C          0.1653677002        0.2767926399       -1.1430682406
 C         -0.9367020199       -0.4954268201       -1.4615918604
 C         -2.0942919699       -0.4229751198       -0.7059504603
 C         -2.1434663697        0.4380373804        0.3815130595
 N         -3.3111317797        0.5049128207        1.1599207196
 S         -4.7764232297        0.7560196007        0.3777461496
 O         -4.5911500097        1.4746673804       -0.8612772506
 O         -5.6282198096        1.3816940110        1.3651227195
 C         -5.3781941499       -0.8868020393        0.0497746299
 C         -5.5653598999       -1.7382450191        1.1210198901
 C         -6.0423526201       -3.0172773991        0.8832669803
 C         -6.3247917902       -3.4201151493       -0.4136510896
 C         -6.1345514301       -2.5522535695       -1.4780042597
 C         -5.6570363200       -1.2714654795       -1.2470058100
 H         -5.4910412999       -0.5637154897       -2.0436664301
 H         -6.3554824802       -2.8670094697       -2.4853023197
 H         -6.6964190203       -4.4161825493       -0.5955565494
 H         -6.1921770601       -3.6949517189        1.7083041805
 H         -5.3388793398       -1.3852831789        2.1133367100
 H         -3.2286538796        1.1043991508        1.9682908394
 H         -2.9540936699       -1.0251178198       -0.9503338102
 H         -0.8940122800       -1.1638975502       -2.3082109302
 H          1.0662182402        0.2211304196       -1.7352338306
 C          1.3115079204        2.0027356800        0.3058012091
 H          1.1125525405        2.4358923602        1.2992067890
 C          1.5260375005        3.1667715298       -0.6529718711
 C          0.8608440505        3.2879388496       -1.9875359711
 C          0.4315368106        4.1725947199       -0.8584786313
 H          0.6874144408        5.2209173198       -0.8886685415
 H         -0.5258133694        3.9654504501       -0.4023919812
 H          1.4375076705        3.7142671694       -2.7940088312
 H          0.1884499804        2.5054325596       -2.3014367610
 H          2.5353964506        3.5598318497       -0.5869327713
 O          3.2480773803        1.1308459194       -1.7648629509
