  62
        -98.93889469
 C         -1.8189138390       -1.3012739775        0.3954295935
 C         -1.6496753676       -0.0869314819       -0.3118293390
 C         -2.4675879516        1.0507088621        0.1473555816
 C         -3.3140900303        0.8854687394        1.1779742523
 C         -4.2174160295        1.9080579596        1.8208923445
 C         -4.9964460897        2.8488690373        0.8902720061
 C         -5.3965301062        2.2438401050       -0.4635484185
 H         -5.2361705764        1.1643691214       -0.4540682335
 H         -6.4629270773        2.4123868071       -0.6246267997
 C         -4.6404596874        2.8634373088       -1.6415885514
 H         -5.2075784090        2.6804268176       -2.5573953139
 H         -4.5951257498        3.9451212320       -1.4968443901
 C         -3.2268607262        2.3293416181       -1.8697784720
 H         -2.7600621599        2.9384086624       -2.6474608535
 H         -3.2744934994        1.3050023500       -2.2484117596
 C         -2.3151157988        2.3252048719       -0.6322831183
 H         -2.4891604522        3.2006224454       -0.0110192123
 H         -1.2779199668        2.3460421761       -0.9778649416
 H         -4.4140647506        3.7527606856        0.7160817491
 H         -5.8934812833        3.1545628187        1.4314725605
 H         -4.9187926366        1.3265247194        2.4242061823
 H         -3.6178883234        2.5060800587        2.5138486201
 O         -3.4416286516       -0.3042503859        1.8324719493
 C         -2.7022501957       -1.4172934041        1.4661021100
 O         -2.9146385633       -2.4297741105        2.1649033948
 O         -0.8464775019        0.0519007996       -1.2678141948
 C         -1.0209497284       -2.5278889784       -0.0034585955
 C          0.4629118397       -2.2463730159        0.0133604217
 C          1.3454779462       -2.8327283101       -0.8861670087
 C          2.7004165271       -2.5554217463       -0.8265805510
 C          3.2047115180       -1.6779772418        0.1154032302
 C          2.3294145928       -1.0788363501        1.0123176753
 C          0.9769081153       -1.3807189894        0.9693332849
 H          0.3042960212       -0.9165494895        1.6806430698
 N          2.8207578869       -0.1498693494        1.9445792793
 S          3.9247436413        0.9867761947        1.4004918863
 O          5.2568428367        0.4420078603        1.5027222114
 O          3.6729485228        2.1681315171        2.1978435120
 C          3.5420187158        1.2904946686       -0.3169956324
 C          2.2368292878        1.5557959894       -0.6798688119
 C          1.9415679388        1.7622631194       -2.0171218556
 C          2.9537465201        1.7170330233       -2.9630970585
 C          4.2626040983        1.4658999334       -2.5817409894
 C          4.5610102561        1.2432589338       -1.2473096156
 H          5.5607406340        1.0251717791       -0.9080032571
 H          5.0482785083        1.4326257982       -3.3192750597
 H          2.7171858476        1.8749030899       -4.0034678069
 H          0.9170845320        1.9261447552       -2.3099579008
 H          1.4586075607        1.5807743229        0.0666073663
 H          2.1033986812        0.2843275415        2.5064096175
 H          4.2561767465       -1.4461203133        0.1722443119
 H          3.3728824282       -3.0227113756       -1.5292474898
 H          0.9705580223       -3.5081661602       -1.6373843203
 H         -1.2318122762       -3.2898610253        0.7620483446
 C         -1.5067633257       -3.0403676766       -1.3457833327
 C         -1.5355817974       -4.5099040822       -1.6368361564
 C         -2.8160090729       -3.7663063978       -1.4074897217
 H         -3.4689620592       -3.5857248854       -2.2482607693
 H         -3.3394938106       -3.9206748939       -0.4746382963
 H         -1.3120053393       -4.8421465715       -2.6394785530
 H         -1.1981158730       -5.1819763036       -0.8621573119
 H         -1.2725245650       -2.3606377431       -2.1570050198
