  62
        -98.92907735
 C         -2.3959369531       -1.2721161378        0.2677831300
 C         -3.0318185541       -0.3374665843        1.1211895689
 C         -4.0590319040        0.5408093200        0.5308414062
 C         -4.3151113207        0.4349328308       -0.7860818300
 C         -5.2885190701        1.2261694238       -1.6194517455
 C         -4.7906116874        2.6459087302       -1.9298972819
 C         -4.1962211228        3.3908761012       -0.7378619510
 H         -3.3524933803        2.8210365545       -0.3434051932
 H         -3.7986476261        4.3409977392       -1.1048063541
 C         -5.1769412704        3.6988665739        0.3914260071
 H         -4.6488650346        4.3247631989        1.1155055759
 H         -6.0092943173        4.2832270562       -0.0068029294
 C         -5.7427968886        2.4878475986        1.1373606810
 H         -6.5388955745        2.0117342122        0.5713481993
 H         -6.1974365809        2.8587199604        2.0605825696
 C         -4.7014382178        1.4521832926        1.5489941447
 H         -3.8784842954        1.9566911546        2.0686664176
 H         -5.1473662326        0.7864600464        2.2978191284
 H         -4.0153923430        2.5732177429       -2.6967386477
 H         -5.6217333181        3.2199280506       -2.3431776092
 H         -5.4034991397        0.6852036256       -2.5613213402
 H         -6.2591805077        1.2554424871       -1.1333825679
 O         -3.6460725465       -0.4451217010       -1.5808490050
 C         -2.6809893351       -1.3142992372       -1.0978995677
 O         -2.1821417286       -2.0392226484       -1.9750329063
 H          0.3621641617       -0.4876286200        1.9088510347
 C          0.7669572852       -0.9432180758        1.0136804769
 C          0.0072140482       -1.8946022045        0.3390408157
 C          0.5347856348       -2.4397453477       -0.8261259923
 C          1.7845097700       -2.0535335088       -1.2799292795
 C          2.5380695848       -1.1179837524       -0.5953469599
 C          2.0153048235       -0.5475140582        0.5571167047
 N          2.7662335470        0.4071043566        1.2653147448
 S          3.4519066382        1.6758031829        0.4056402848
 O          3.6160914824        2.7396243741        1.3724922153
 O          2.6834299303        1.9933517569       -0.7761959362
 C          5.0579741275        1.0564872756       -0.0506567737
 C          5.4543440146        1.0762486689       -1.3734585765
 C          6.7114747612        0.5939250605       -1.7036197584
 C          7.5455497213        0.1040825025       -0.7103879322
 C          7.1337195142        0.0945698323        0.6140739588
 C          5.8790023466        0.5763726959        0.9509860922
 H          5.5225993682        0.5894721180        1.9673915295
 H          7.7851880068       -0.2870401343        1.3836338456
 H          8.5222019435       -0.2726065673       -0.9702901444
 H          7.0330900150        0.6013131181       -2.7326981777
 H          4.7694423152        1.4603096354       -2.1128765391
 H          2.3063940919        0.7477250237        2.0976087715
 H          3.5095195038       -0.8167314601       -0.9514828989
 H          2.1751343870       -2.4893980034       -2.1870059210
 H         -0.0419441239       -3.1369828316       -1.4067360121
 C         -1.3599623780       -2.1917853558        0.9031885410
 H         -1.3348238420       -1.8544065541        1.9512512088
 C         -1.8276398892       -3.6403739115        0.9755839020
 C         -1.9780133390       -4.5868917005       -0.1761092702
 C         -0.9032570585       -4.8133503078        0.8428949329
 H         -1.0182202824       -5.6353216001        1.5336289733
 H          0.1181625100       -4.6158693618        0.5576426103
 H         -1.7218618143       -4.2451992655       -1.1643186806
 H         -2.8383256371       -5.2415824988       -0.1643922236
 H         -2.6000412065       -3.7317214985        1.7358627710
 O         -2.7562527718       -0.2344889327        2.3494079521
