  62
        -98.94334592
 C         -2.3454942334       -0.5527120784        0.1153494187
 C         -3.3732303954       -0.3146523167        1.0617289512
 C         -4.3090113164        0.7661095728        0.7348263317
 C         -4.1300330372        1.4857416098       -0.3878881724
 C         -4.9773576791        2.6433400748       -0.8417446366
 C         -6.2430713906        2.2298576423       -1.6050793831
 C         -7.3474505142        1.6121619807       -0.7465094494
 H         -7.5603482508        2.2692048834        0.0972922507
 H         -8.2476206644        1.5718342138       -1.3630627912
 C         -7.0360456810        0.1985737222       -0.2353067312
 H         -7.9058018151       -0.4441970904       -0.3889677097
 H         -6.2167416718       -0.2277204499       -0.8188082854
 C         -6.6759246095        0.1258777524        1.2486181327
 H         -7.5370085281        0.4260982243        1.8497777971
 H         -6.4404407052       -0.9130344822        1.4932029309
 C         -5.4743947777        0.9915407247        1.6502342851
 H         -5.7551109277        2.0444864243        1.6573793900
 H         -5.1657734891        0.7040015680        2.6582445224
 H         -5.9614617821        1.5302839596       -2.3954901815
 H         -6.6428922327        3.1272876635       -2.0827784886
 H         -5.2530313192        3.2547140758        0.0179338751
 H         -4.3531288284        3.2417521756       -1.5087627524
 O         -3.1116733428        1.2467491711       -1.2554665692
 C         -2.2070584547        0.2161985729       -1.0402362850
 O         -1.3509103796        0.0990808903       -1.9375949336
 H          0.8439730403       -1.5044110066       -1.2601702275
 C          1.0089429006       -1.0402144277       -0.3006207808
 C          0.0025544608       -1.0460274541        0.6516818018
 C          0.2402204653       -0.4250258764        1.8753821933
 C          1.4515172062        0.1872220960        2.1335110667
 C          2.4498106385        0.2020364999        1.1743937403
 C          2.2226302765       -0.4120880258       -0.0490794868
 N          3.2215552529       -0.3792563716       -1.0357706036
 S          4.7838032696       -0.8231199637       -0.6236911014
 O          5.3973200486       -1.2493810129       -1.8626176128
 O          4.7943292820       -1.7794620653        0.4592195528
 C          5.5404179404        0.7006827021       -0.0981366505
 C          6.1469572821        0.7776785808        1.1402451957
 C          6.7394890993        1.9709436814        1.5234067497
 C          6.7158918523        3.0597677555        0.6654982076
 C          6.1047447945        2.9653180596       -0.5760887718
 C          5.5115152445        1.7751304936       -0.9654178526
 H          5.0284858010        1.6606703516       -1.9216218567
 H          6.0877086584        3.8143718899       -1.2404139765
 H          7.1763283843        3.9877541459        0.9658218872
 H          7.2153424026        2.0464027744        2.4879497547
 H          6.1360457561       -0.0931943292        1.7762089457
 H          2.9407546550       -0.7886061454       -1.9146332817
 H          3.3952912082        0.6828567435        1.3654751990
 H          1.6211056654        0.6617332481        3.0881051097
 H         -0.5442815899       -0.4256928210        2.6195118198
 C         -1.3499206395       -1.6648791081        0.4003902120
 H         -1.6913480605       -2.1250662932        1.3379421958
 C         -1.3546857173       -2.7181274854       -0.6871516750
 C         -0.7248571640       -4.0519520304       -0.4217019748
 C         -2.2151408508       -3.9336260698       -0.5250899578
 H         -2.7054714319       -4.3376063169       -1.3981600809
 H         -2.7987203232       -4.0154344964        0.3800955886
 H         -0.1900079838       -4.5403761233       -1.2222373373
 H         -0.2935729590       -4.2126740050        0.5549115098
 H         -1.2681291329       -2.3045085339       -1.6849408763
 O         -3.4991336089       -0.9720584091        2.1289392389
