  62
        -98.94587145
 C         -1.9313742178       -1.2836703981        0.1867144527
 C         -1.7787002675        0.1209573334        0.1093119712
 C         -2.9792029965        0.9112943648        0.4196156973
 C         -4.1141945307        0.2778219966        0.7682060036
 C         -5.4173807938        0.9566845054        1.0740067417
 C         -6.2854179072        1.0939335785       -0.1843806746
 C         -5.5427050013        1.6796123928       -1.3851891462
 H         -4.7715273884        0.9751040201       -1.7053968465
 H         -6.2614692613        1.7618038497       -2.2034417906
 C         -4.9014419102        3.0503787912       -1.1276921483
 H         -5.1168128540        3.7021085791       -1.9770956893
 H         -5.3502275204        3.5094446180       -0.2460527033
 C         -3.3805409665        3.0186385971       -0.9647558500
 H         -2.9346071110        2.4731141115       -1.8003377745
 H         -3.0133862414        4.0472765369       -1.0126817762
 C         -2.8614979461        2.4075962588        0.3430947585
 H         -3.3615638518        2.8777198398        1.1922587546
 H         -1.7915560626        2.6245770604        0.4104557579
 H         -6.6554154418        0.1036848482       -0.4601477800
 H         -7.1449951999        1.7221312692        0.0564584965
 H         -5.9533157806        0.3539266511        1.8092109606
 H         -5.2183483884        1.9383808634        1.4994185022
 O         -4.2164448479       -1.0740392476        0.8453813826
 C         -3.1349199279       -1.8872205051        0.5501992490
 O         -3.3634008480       -3.1093737669        0.6560117454
 O         -0.6970896208        0.6864138260       -0.1962725613
 C         -0.7543856877       -2.1880425471       -0.1295208103
 C          0.4203276720       -1.8480165713        0.7552676295
 C          0.2181973578       -1.7266245774        2.1284068006
 C          1.2676596214       -1.4233026307        2.9729643905
 C          2.5416317598       -1.2284939030        2.4670937118
 C          2.7571950371       -1.3573515592        1.1009834541
 C          1.7013976982       -1.6770952017        0.2558040432
 H          1.8994139199       -1.7724536961       -0.7981885387
 N          4.0474882874       -1.2032706588        0.5653483809
 S          4.3422983884       -0.2258272719       -0.7593410178
 O          3.5751793000       -0.6794458005       -1.8900245855
 O          5.7806706988       -0.2530743107       -0.9116276803
 C          3.8351319232        1.4119413795       -0.2646839290
 C          4.8147822359        2.3253535805        0.0765039173
 C          4.4399578280        3.5912970893        0.4948086821
 C          3.0948219832        3.9199202963        0.5736759335
 C          2.1254256288        2.9897922663        0.2336608832
 C          2.4916953766        1.7216633981       -0.1907812850
 H          1.7397473839        0.9947534866       -0.4537980886
 H          1.0758217102        3.2299895568        0.2931004573
 H          2.7999130479        4.9048113994        0.9001952532
 H          5.1943196214        4.3151830868        0.7582801368
 H          5.8475571898        2.0266008056       -0.0036292256
 H          4.7643499839       -1.0524116031        1.2609715757
 H          3.3620465021       -0.9855486730        3.1252595175
 H          1.0932549099       -1.3311961043        4.0344123251
 H         -0.7786446048       -1.8720869303        2.5228852975
 H         -1.0806509788       -3.2097356968        0.1157052897
 C         -0.4333448122       -2.1247632829       -1.6084913526
 C          0.1716766901       -3.3067079972       -2.3019821170
 C         -1.2549184471       -2.9315759546       -2.5664380711
 H         -1.5071585760       -2.4984472228       -3.5228346297
 H         -2.0340161899       -3.5530712305       -2.1486326121
 H          0.9050815805       -3.1282987073       -3.0743249339
 H          0.3615662800       -4.1899275325       -1.7106960428
 H         -0.1230938286       -1.1365551923       -1.9303771412
