  62
        -98.93470850
 C         -1.7996464992       -0.8648509502        0.5847292491
 C         -2.1343791892        0.3850785302        0.0106649999
 C         -3.5569557191        0.7809603802        0.0781315002
 C         -4.4501606592       -0.0310862500        0.6709103698
 C         -5.9377812291        0.1210920799        0.9107089000
 C         -6.7408350891        1.1979151404        0.1859073107
 C         -6.8766621092        0.9879984313       -1.3219494694
 H         -7.5198361393        0.1214821215       -1.4953381499
 H         -7.3763621692        1.8623167416       -1.7447771089
 C         -5.5704132793        0.7496385417       -2.0752951596
 H         -5.8146767594        0.6103842423       -3.1319621397
 H         -5.1104946894       -0.1775719386       -1.7273324902
 C         -4.5459262592        1.8785433315       -1.9802147991
 H         -5.0056764292        2.8192515417       -2.2893929785
 H         -3.7411103493        1.6535137819       -2.6854491092
 C         -3.9058810491        2.0771158507       -0.5952641890
 H         -2.9627988391        2.6145807207       -0.7327118387
 H         -4.5359556790        2.6863021603        0.0483461414
 H         -6.3313399590        2.1810297003        0.3989577012
 H         -7.7470111191        1.1757729003        0.6134163408
 H         -6.0495445891        0.2737753493        1.9899577301
 H         -6.3755329292       -0.8584770199        0.6928517495
 O         -4.0731490792       -1.2141246304        1.2393080691
 C         -2.7629065293       -1.6527165405        1.2200682288
 O         -2.5833669993       -2.7440639008        1.7957366481
 O         -1.3049783692        1.1539333004       -0.5394766697
 C         -0.3779683493       -1.4025614703        0.6084688087
 C          0.5733606608       -0.3378014707        1.0898623793
 C          0.6690294610       -0.0652249815        2.4505493494
 C          1.5362208011        0.9042054482        2.9215926299
 C          2.3239481811        1.6266355486        2.0420338303
 C          2.2223660909        1.3712524094        0.6825810602
 C          1.3626393008        0.3889424698        0.2125895897
 H          1.2859312307        0.2092307404       -0.8485979404
 N          3.0516136709        2.0894313999       -0.2156335495
 S          4.6320819309        1.5331513798       -0.2382398099
 O          5.2269884310        1.7831003890        1.0493405402
 O          5.2677559109        2.1598644204       -1.3748717596
 C          4.4677078407       -0.2229576601       -0.5081602709
 C          4.2535142807       -1.0469871807        0.5788836286
 C          4.0069516906       -2.3927945105        0.3599107978
 C          3.9757371405       -2.8877711298       -0.9350464824
 C          4.1969574105       -2.0478566492       -2.0160533220
 C          4.4375256106       -0.6999832793       -1.8033888912
 H          4.6122073706       -0.0120295189       -2.6152535808
 H          4.1743774204       -2.4376998286       -3.0211380622
 H          3.7765549404       -3.9348987897       -1.1019700430
 H          3.8300045106       -3.0473662210        1.1983183175
 H          4.2853542808       -0.6248217713        1.5700493289
 H          2.6875004109        2.0911337105       -1.1588108295
 H          3.0192936011        2.3745657484        2.3870525407
 H          1.6000883012        1.0992677175        3.9814618500
 H          0.0507301910       -0.6248523318        3.1392833092
 H         -0.3960323893       -2.2050953408        1.3626434783
 C          0.0818999806       -2.0420964396       -0.6942416617
 C         -0.8502960096       -2.9113344591       -1.4825116821
 C         -0.3990578895       -1.5967297788       -2.0409269214
 H          0.3052609704       -1.6043364384       -2.8602137814
 H         -1.1075028894       -0.7847480187       -2.0839508609
 H         -0.4642644497       -3.8191914688       -1.9202563627
 H         -1.8679428095       -2.9945895492       -1.1287609621
 H          1.1158022505       -2.3695004997       -0.6336063219
