  62
        -98.93459897
 C         -1.2630373032       -1.9434486784       -0.3144049165
 C         -2.1561698355       -1.6666510608        0.7555036254
 C         -3.1594502474       -0.6250744490        0.5164721857
 C         -3.2384135413       -0.0474777830       -0.6955367699
 C         -4.1720159547        1.0650331182       -1.0878508607
 C         -3.6291656751        2.4594656422       -0.7445701751
 C         -3.6268145820        2.8086470171        0.7445081862
 H         -3.4213651811        3.8782329160        0.8236255761
 H         -4.6207452303        2.6373527185        1.1587455240
 C         -2.5854454378        2.0448269134        1.5762217654
 H         -1.8350784497        1.6079456068        0.9107464403
 H         -2.0619187903        2.7423741644        2.2353000481
 C         -3.1666512437        0.9382208239        2.4582449210
 H         -3.8208722517        1.3793841285        3.2132383888
 H         -2.3397431578        0.4440677248        2.9760548990
 C         -3.9515102641       -0.1348234054        1.6899452469
 H         -4.1208451539       -0.9810040411        2.3598764226
 H         -4.9156429544        0.2578499662        1.3687177573
 H         -2.6130656893        2.5442022530       -1.1370669094
 H         -4.2502264246        3.1918170930       -1.2651804777
 H         -4.3008091074        1.0014280712       -2.1702942778
 H         -5.1420548894        0.9209766247       -0.6124877594
 O         -2.4459164608       -0.4228290616       -1.7297580560
 C         -1.3920089971       -1.3239145065       -1.5586685131
 O         -0.7034948601       -1.4643358474       -2.5818026377
 O         -2.0891375447       -2.2468513543        1.8717709024
 C         -0.0786449015       -2.8206644343        0.0537915630
 C          0.8366214771       -2.0417638367        0.9743380892
 C          1.6223137906       -2.6800757188        1.9277560672
 C          2.4710375619       -1.9573554749        2.7486467597
 C          2.5174423130       -0.5760622980        2.6742465294
 C          1.6944385359        0.0740219869        1.7680907145
 C          0.8924854090       -0.6564152955        0.9054165639
 H          0.2752661830       -0.1358224634        0.1839677304
 N          1.6784981500        1.4972648747        1.7436156460
 S          2.6808667501        2.1925213202        0.6021063003
 O          3.9948744157        1.6236569043        0.7582180361
 O          2.5640568602        3.6211781256        0.7897059263
 C          2.0003673156        1.7542813904       -0.9882147698
 C          0.7973827376        2.3205233476       -1.3647271081
 C          0.2372532990        1.9585633525       -2.5784277216
 C          0.8841047992        1.0402861555       -3.3914439123
 C          2.0925818996        0.4868560611       -3.0018815293
 C          2.6560771610        0.8409068546       -1.7862363013
 H          3.5913302278        0.4292229797       -1.4409297638
 H          2.5897140662       -0.2286059773       -3.6362266111
 H          0.4374016292        0.7463222223       -4.3271979625
 H         -0.7054680613        2.3828471918       -2.8872380121
 H          0.3266716764        3.0399196146       -0.7113335508
 H          0.7480916978        1.8749137000        1.6254533057
 H          3.1583584895        0.0064111467        3.3153164038
 H          3.0862167015       -2.4732924063        3.4697989812
 H          1.5517715957       -3.7517449152        2.0408800200
 H         -0.4875888837       -3.6561476724        0.6453995743
 C          0.6546419474       -3.4120736512       -1.1384388718
 C          1.9245436278       -2.8275246240       -1.6716636250
 C          1.9461604143       -4.1596816661       -0.9879978670
 H          2.0902684684       -5.0442228775       -1.5898399882
 H          2.4043115741       -4.2110003434       -0.0134749068
 H          2.0461958392       -2.7823463065       -2.7421542106
 H          2.3443959889       -1.9809673809       -1.1488480964
 H         -0.0369088484       -3.8004485635       -1.8771699448
