  62
        -98.94428184
 C          1.7634259605       -1.0390013381       -0.0380475061
 C          1.9541956123        0.3610938688        0.0564050979
 C          3.2232651010        0.8718679444       -0.4802491505
 C          4.0971980743        0.0342665481       -1.0653855188
 C          5.4145288902        0.4133388489       -1.6852157235
 C          6.5692907241        0.5218732137       -0.6798292542
 C          6.5206522132        1.7436725387        0.2385977692
 H          7.4914927226        1.8104694170        0.7337572115
 H          6.4005724010        2.6448840130       -0.3636113767
 C          5.4229176612        1.6870775324        1.3101223132
 H          5.0706509140        0.6585103987        1.4162688813
 H          5.8407627174        1.9833161029        2.2749017515
 C          4.2237480446        2.5951904484        1.0379509632
 H          4.5421797335        3.6397795463        1.0623793766
 H          3.4934110582        2.4466064410        1.8372241340
 C          3.5221859433        2.3300592131       -0.3004212392
 H          2.5714690438        2.8688634834       -0.3022298065
 H          4.1326536645        2.6978925765       -1.1248532340
 H          6.5925132639       -0.3878445968       -0.0753340114
 H          7.4977502194        0.5624190188       -1.2540878850
 H          5.6567009815       -0.3727944658       -2.4037567294
 H          5.3097500819        1.3553967831       -2.2243380648
 O          3.8597555776       -1.2987581926       -1.1790600947
 C          2.7139442925       -1.8650356205       -0.6491850217
 O          2.6518866131       -3.1036542555       -0.7829076294
 H         -0.6580798541        0.4728232315       -0.4136077241
 C         -1.1496909286       -0.4217418569       -0.7667304594
 C         -0.6490504356       -1.6622823248       -0.3984322912
 C         -1.2991632426       -2.8015287290       -0.8573995625
 C         -2.4210681668       -2.6995446092       -1.6623862977
 C         -2.9159481255       -1.4602627310       -2.0284874564
 C         -2.2672739807       -0.3178798214       -1.5804702269
 N         -2.7766225091        0.9555238564       -1.9321643725
 S         -4.2275043621        1.3327732252       -1.1789850732
 O         -5.2596263832        0.4786403264       -1.7089063928
 O         -4.4158344338        2.7538985677       -1.3625428022
 C         -3.9374324944        0.9559581145        0.5394972592
 C         -3.3291179469        1.9108935318        1.3290399494
 C         -3.0190553016        1.5964668385        2.6418783443
 C         -3.3116466157        0.3343500072        3.1348971515
 C         -3.9164302221       -0.6160749169        2.3269957991
 C         -4.2317728544       -0.3062300848        1.0141148268
 H         -4.7027145913       -1.0156022952        0.3535970798
 H         -4.1381912942       -1.5982572315        2.7121710846
 H         -3.0668482752        0.0927953067        4.1575903625
 H         -2.5439239223        2.3319052736        3.2712259168
 H         -3.1195134353        2.8815276000        0.9082372119
 H         -2.1136578349        1.6952102294       -1.7414846262
 H         -3.7971672850       -1.3590096289       -2.6410537734
 H         -2.9151537698       -3.5941681126       -2.0096058530
 H         -0.9143424563       -3.7736816398       -0.5861473673
 C          0.5464286898       -1.7632805300        0.5173428311
 H          0.8371241033       -2.8206535391        0.5733996808
 C          0.1672562853       -1.2970377646        1.9112769593
 C         -0.5360947669       -2.2489929230        2.8283625331
 C          0.8892246439       -1.8682907256        3.0925339073
 H          1.1076000834       -1.2181421025        3.9261998045
 H          1.6592149524       -2.6016928127        2.8996037208
 H         -1.3003842496       -1.8605513455        3.4821880551
 H         -0.7328876818       -3.2445813904        2.4609531564
 H         -0.1129531188       -0.2527253092        1.9539774202
 O          1.1229602451        1.1699328009        0.5507361379
