  62
        -98.93904382
 C          2.3638407718        0.6238358998        0.1201983536
 C          2.6685322622       -0.7636542141        0.1098303173
 C          3.9615155019       -1.1496274443       -0.4679752310
 C          4.7668424937       -0.1939195911       -0.9656051264
 C          6.1325905032       -0.4321700570       -1.5399975696
 C          7.2179390048       -0.3102907435       -0.4612814954
 C          6.9191296454       -1.1090360513        0.8073737074
 H          7.7653250746       -0.9733630124        1.4843567877
 H          6.0424124663       -0.6818074122        1.2996225466
 C          6.6869405030       -2.6083348940        0.5734874649
 H          7.2410105643       -3.1703890398        1.3282139872
 H          7.0824143826       -2.8972891827       -0.4008617389
 C          5.2250771890       -3.0478963500        0.6765515430
 H          5.1999957643       -4.1402443078        0.7152721530
 H          4.7957386319       -2.6785030536        1.6114377565
 C          4.3128935004       -2.6108038144       -0.4768681805
 H          4.7645346323       -2.8923647967       -1.4303373922
 H          3.3650936594       -3.1473407795       -0.3735212933
 H          7.3168615317        0.7424630093       -0.1872275521
 H          8.1666565973       -0.6417408063       -0.8871522890
 H          6.1625610133       -1.4221648444       -1.9908019588
 H          6.3152966897        0.3158724742       -2.3131317937
 O          4.4379715030        1.1203304921       -0.9560980129
 C          3.2423275142        1.5683403622       -0.4121649439
 O          3.1086253579        2.8062346240       -0.4764356263
 H         -1.3150150381       -0.2852306916        0.4777954070
 C         -1.2019696642        0.4984294730       -0.2574980299
 C         -0.0396717953        1.2544638275       -0.2963448775
 C          0.0848331283        2.2425042444       -1.2677682468
 C         -0.9367399011        2.4644168306       -2.1728270403
 C         -2.1064843377        1.7274915329       -2.1137211128
 C         -2.2384083185        0.7351742100       -1.1497440753
 N         -3.4055666913       -0.0404887921       -1.0700901230
 S         -3.9432555173       -0.5116791567        0.4602403869
 O         -3.7929475786        0.5804185597        1.3948909596
 O         -3.3006678752       -1.7512574585        0.8186008194
 C         -5.6697372387       -0.8023182586        0.1220043707
 C         -6.5839749777        0.2046283491        0.3685986083
 C         -7.9201189526       -0.0162679230        0.0736425194
 C         -8.3165673797       -1.2321321759       -0.4628378435
 C         -7.3874326902       -2.2334195781       -0.7041042376
 C         -6.0499320239       -2.0196811271       -0.4107210383
 H         -5.2935947949       -2.7701999145       -0.5721687428
 H         -7.6999543121       -3.1784583274       -1.1181273551
 H         -9.3568463452       -1.4017273743       -0.6914720442
 H         -8.6451124802        0.7588196463        0.2631547962
 H         -6.2309015667        1.1297959835        0.7951136120
 H         -4.1580401832        0.3187229409       -1.6414840404
 H         -2.9088627490        1.9144568062       -2.8112678336
 H         -0.8268734138        3.2320758923       -2.9240180282
 H          0.9884482711        2.8309137705       -1.3050146466
 C          1.0347055738        1.0184178440        0.7390368378
 H          0.7249350444        0.1466368123        1.3326717358
 C          1.1197146914        2.2180879522        1.6650643645
 C         -0.0132742329        2.4752202231        2.6115845071
 C          1.3097263055        2.0038755136        3.1349405522
 H          1.9265874715        2.7012163762        3.6817303362
 H          1.3840275188        0.9849580857        3.4869739529
 H         -0.8414033364        1.7806610621        2.6036932081
 H         -0.3042383614        3.4976091619        2.7982978335
 H          1.6056187214        3.0742420065        1.2156663994
 O          1.8914859160       -1.6426535840        0.5728461017
