  62
        -98.93963059
 C         -2.4789403235       -1.0472806865        0.3712859283
 C         -2.4711586414        0.1405193667        1.1496213260
 C         -3.5838644483        1.0740712628        0.9344959452
 C         -4.5443439162        0.7544131055        0.0484278836
 C         -5.7162535400        1.6237727313       -0.3025227991
 C         -5.3960801273        2.5360733167       -1.4945433932
 C         -4.0730736840        3.2894877061       -1.3567958526
 H         -3.2486327301        2.5725370287       -1.3777260734
 H         -3.9670372962        3.9254796846       -2.2383000954
 C         -3.9614914237        4.1494635645       -0.0901114614
 H         -3.5490996173        5.1230639042       -0.3629284495
 H         -4.9532043841        4.3230788500        0.3291276767
 C         -3.0496782691        3.5691256869        0.9930321098
 H         -2.8680768282        4.3484441704        1.7382451820
 H         -2.0819951433        3.3039749464        0.5578135300
 C         -3.5941525379        2.3437478101        1.7382815228
 H         -2.9408936834        2.1599704368        2.5965075878
 H         -4.5987953129        2.5559462499        2.1102888927
 H         -6.2128318978        3.2505096499       -1.6114708353
 H         -5.3477577174        1.9227145064       -2.3970470516
 H         -5.9883140217        2.2225233044        0.5644706709
 H         -6.5553509120        0.9776762002       -0.5655744988
 O         -4.5300978795       -0.3966653533       -0.6659210933
 C         -3.5005230330       -1.3191818074       -0.5396043322
 O         -3.6369045712       -2.3114913100       -1.2807984954
 O         -1.5769766249        0.4016762699        2.0006291075
 C         -1.3252370256       -2.0123519854        0.5878654253
 C         -0.2795180487       -1.8734664999       -0.4934834032
 C         -0.5320521584       -2.2553415060       -1.8072990910
 C          0.4473921039       -2.1183736017       -2.7735736059
 C          1.6902919499       -1.6021877915       -2.4526296456
 C          1.9551293007       -1.2223359268       -1.1417257749
 C          0.9699131656       -1.3604370996       -0.1736981318
 H          1.1790402650       -1.0441574053        0.8374452925
 N          3.2279206288       -0.7422682160       -0.7872350214
 S          3.3748153353        0.4397954373        0.4085855660
 O          3.2003111003       -0.1782520044        1.6984142604
 O          2.5204304791        1.5665191647        0.1050335667
 C          5.0891782719        0.8785032745        0.1886332703
 C          6.0518726953        0.0011726250        0.6519116342
 C          7.3886907497        0.3127884901        0.4634325536
 C          7.7393155342        1.4901182774       -0.1810920087
 C          6.7624674983        2.3617505600       -0.6379070362
 C          5.4229407842        2.0550017999       -0.4542729661
 H          4.6290710967        2.7045483532       -0.7866381139
 H          7.0379781205        3.2776670587       -1.1354138363
 H          8.7806083459        1.7309061320       -0.3258649244
 H          8.1509833150       -0.3611759706        0.8195882198
 H          5.7315688581       -0.8964207882        1.1545226315
 H          3.7897117045       -0.5073231751       -1.5948775503
 H          2.4521080604       -1.4965412230       -3.2101744072
 H          0.2385696274       -2.4129406920       -3.7910714162
 H         -1.5067103519       -2.6393489040       -2.0649784540
 H         -0.8625462015       -1.6928092822        1.5322933628
 C         -1.7628501100       -3.4567163659        0.7361930953
 C         -0.8366857933       -4.4240244606        1.4077319221
 C         -2.0927330505       -3.9857288986        2.0979525073
 H         -2.9045448905       -4.6910446418        2.1929926399
 H         -2.0053242299       -3.3052505098        2.9328118893
 H         -0.7829346831       -5.4330619072        1.0292642464
 H          0.1035158985       -4.0395373385        1.7746754147
 H         -2.3559589595       -3.8168991013       -0.0937586049
