  62
        -98.93496742
 C         -2.4769001203       -1.4821821063        0.2307464517
 C         -2.7615373848       -0.6060805346       -0.8427633058
 C         -3.7384182672        0.4689548047       -0.5756026950
 C         -4.2694449091        0.6007595250        0.6532766288
 C         -5.2983047030        1.5688547891        1.1988881788
 C         -5.6598108384        2.8399178462        0.4347004988
 C         -4.5340597699        3.8684677914        0.3329653530
 H         -4.8743847165        4.6848308707       -0.3077966970
 H         -4.3478227266        4.2814257679        1.3275694494
 C         -3.2043851627        3.3412782996       -0.2014171581
 H         -2.4979660037        4.1760003871       -0.2269980156
 H         -2.7951502840        2.6022009194        0.4913991749
 C         -3.2571218005        2.7345552101       -1.6024412217
 H         -3.7008209962        3.4512959070       -2.2962234806
 H         -2.2255443187        2.5576881766       -1.9203058604
 C         -4.0160594366        1.4008923535       -1.7202461719
 H         -5.0854046286        1.5631203932       -1.8308379784
 H         -3.6650154470        0.8930436791       -2.6232927594
 H         -6.4833146259        3.3068931810        0.9816529601
 H         -6.0382556879        2.5924974949       -0.5526750472
 H         -6.2116674013        0.9812408610        1.3437701245
 H         -4.9458039856        1.8409199865        2.1988678352
 O         -3.9425730383       -0.2524998958        1.6676931615
 C         -3.0561788067       -1.2968988548        1.4881997335
 O         -2.8698497925       -1.9884469576        2.5092330410
 H         -0.1636007306       -0.7062707445       -1.1479045913
 C          0.4400715794       -1.1781364975       -0.3863004861
 C         -0.1011281281       -2.2169920524        0.3592234700
 C          0.6843155861       -2.8109572981        1.3395043472
 C          1.9796731172       -2.3762590201        1.5616304303
 C          2.5173272349       -1.3459502516        0.8111682116
 C          1.7375864587       -0.7406088305       -0.1658495983
 N          2.2748228617        0.3037632781       -0.9407016324
 S          2.9715144420        1.5955816243       -0.1240984253
 O          2.3827903777        1.7749466028        1.1836587742
 O          2.8773083712        2.7177786025       -1.0321578957
 C          4.6799499389        1.1179007136        0.0322219336
 C          5.3664222013        0.7736706674       -1.1159272421
 C          6.6972766221        0.4016966023       -1.0134536953
 C          7.3166541244        0.3833269467        0.2275267113
 C          6.6149060714        0.7356909906        1.3701570460
 C          5.2827559503        1.1076773384        1.2747414826
 H          4.6950742719        1.3826928064        2.1362096705
 H          7.0979069603        0.7212884432        2.3339825871
 H          8.3523470274        0.0924053088        0.3047505696
 H          7.2460904843        0.1268257646       -1.8997592849
 H          4.8488055872        0.8034125252       -2.0601362161
 H          1.6380859930        0.6364240621       -1.6513291098
 H          3.5244487834       -1.0020057172        0.9813565763
 H          2.5778176115       -2.8445567662        2.3282880951
 H          0.2663875479       -3.6052259153        1.9406698428
 C         -1.5216340153       -2.6612196712        0.1226171130
 H         -1.8013842522       -3.3277830832        0.9534295439
 C         -1.7004508574       -3.4494883608       -1.1690670546
 C         -0.6658562233       -3.5338093941       -2.2471630240
 C         -0.9319781423       -4.7214702275       -1.3753373088
 H         -1.4431871786       -5.5740012052       -1.7959274683
 H         -0.1864175044       -4.9720390931       -0.6356435856
 H         -1.0131089289       -3.5479877027       -3.2691050264
 H          0.2620870072       -3.0012658626       -2.1118840672
 H         -2.7342876119       -3.4487601196       -1.4993807865
 O         -2.2422663752       -0.6964372269       -1.9860919691
