  62
        -98.94360201
 C         -1.8069796826        0.8383424344       -0.8353033851
 C         -2.0197444798        0.4126233238        0.4980753891
 C         -3.4201950682        0.3964645983        0.9455908375
 C         -4.3883255511        0.7948375651        0.1002855506
 C         -5.8570328974        0.7763894770        0.4087747040
 C         -6.4972017467       -0.5516216884       -0.0192558559
 C         -5.7369495887       -1.7873875667        0.4624789795
 H         -4.7624897520       -1.8216879255       -0.0302872453
 H         -6.2965240256       -2.6637996106        0.1281907612
 C         -5.5369265107       -1.8576385929        1.9828323902
 H         -5.7638761750       -2.8716714460        2.3187443748
 H         -6.2391103194       -1.1874094197        2.4799924708
 C         -4.1152905130       -1.5408589950        2.4510079059
 H         -3.3999681790       -2.1441528899        1.8860808237
 H         -4.0312598031       -1.8319924734        3.5014159699
 C         -3.6910270734       -0.0703946229        2.3480685232
 H         -2.7455963271        0.0404349720        2.8867654153
 H         -4.4385396768        0.5633537620        2.8293669624
 H         -6.5394850476       -0.5796980072       -1.1106354425
 H         -7.5200901054       -0.5803848948        0.3606279359
 H         -6.0011912738        0.9339964496        1.4757789340
 H         -6.3337828383        1.5918067069       -0.1377863538
 O         -4.1405917384        1.2186792235       -1.1660228920
 C         -2.8502031268        1.2368617131       -1.6699240984
 O         -2.7639999200        1.6194262385       -2.8548967410
 H          2.0965905371        0.1468567630       -0.4736382231
 C          1.5085870169       -0.6941192688       -0.7985569809
 C          0.2303737890       -0.4991954342       -1.2957910379
 C         -0.4943733697       -1.6084499107       -1.7251325120
 C          0.0417751241       -2.8781116821       -1.6399703155
 C          1.3160156461       -3.0693594579       -1.1345279342
 C          2.0521138519       -1.9693086835       -0.7128520634
 N          3.3303956174       -2.1349397350       -0.1670996449
 S          4.5167853582       -0.9762718939       -0.3435707062
 O          4.4873988136       -0.3736683720       -1.6560729738
 O          5.7424937547       -1.6626675140        0.0063252866
 C          4.1607148418        0.2458497478        0.9014589029
 C          3.6515279836       -0.1558886196        2.1200836094
 C          3.4043830961        0.8027055365        3.0896401534
 C          3.6754943591        2.1373510675        2.8297729674
 C          4.1940599364        2.5238095092        1.6036849908
 C          4.4406873510        1.5703390500        0.6285663376
 H          4.8330389080        1.8270091963       -0.3429076768
 H          4.4040062696        3.5626444078        1.4034599282
 H          3.4792813575        2.8809944606        3.5861106946
 H          2.9964402510        0.5062639429        4.0425816833
 H          3.4434724151       -1.1992066605        2.2887812014
 H          3.6962244257       -3.0748707921       -0.1818742645
 H          1.7345967521       -4.0616954545       -1.0631812027
 H         -0.5349407528       -3.7285316284       -1.9720104578
 H         -1.4897273888       -1.4594828765       -2.1224113337
 C         -0.3973123694        0.8696661637       -1.3970249718
 H         -0.4973179797        1.1199231936       -2.4637191284
 C          0.4070529981        1.9569815584       -0.7148827896
 C          1.5321680802        2.6327664354       -1.4373120288
 C          0.2533936224        3.3714698521       -1.1834043342
 H          0.2512630718        4.1612942952       -0.4476077853
 H         -0.4129496210        3.5476188949       -2.0155604052
 H          1.7461886572        2.3104461857       -2.4454071336
 H          2.4077303220        2.9154287290       -0.8728307030
 H          0.5107187999        1.7907522468        0.3515073553
 O         -1.0924064894        0.0639382136        1.2733704491
