  62
        -98.93344265
 C         -2.0656782080       -1.1250803191       -0.2712634145
 C         -2.4483525096       -0.3310484888        0.8376067469
 C         -2.6578788034        1.1059743575        0.6039527076
 C         -2.4471343107        1.6044393924       -0.6278953032
 C         -2.4960549598        3.0247559747       -1.1526787345
 C         -3.1375301616        4.1388250532       -0.3297238946
 C         -4.6514552983        4.0160307815       -0.1600020637
 H         -4.9833004720        4.8015199749        0.5222436372
 H         -5.1241100557        4.1937882177       -1.1291395115
 C         -5.1483944620        2.6675207562        0.3544805705
 H         -6.2386955732        2.7157107726        0.4195548229
 H         -4.9024043672        1.8865320893       -0.3678978642
 C         -4.6190213083        2.2564691104        1.7269593961
 H         -5.1721297141        1.3669106545        2.0396914720
 H         -4.8208131644        3.0479966234        2.4510945138
 C         -3.1206563083        1.9107429398        1.7843265078
 H         -2.5095413791        2.8031585117        1.8998818617
 H         -2.9497281524        1.2834170583        2.6641794417
 H         -2.6486464306        4.2177002793        0.6367930511
 H         -2.9389783323        5.0725904668       -0.8629237128
 H         -1.4522344934        3.2938813182       -1.3524985286
 H         -2.9911469767        2.9668692350       -2.1275784408
 O         -2.0762961750        0.8048704117       -1.6686970978
 C         -1.8596410935       -0.5607675670       -1.5289770257
 O         -1.5230807087       -1.1175642911       -2.5902523237
 H          0.4909542985       -1.2912800481       -0.7126647609
 C          0.6470914031       -1.9199326799        0.1523314321
 C         -0.3990708612       -2.6773793234        0.6590528116
 C         -0.1644239289       -3.4817458473        1.7677741290
 C          1.0860504795       -3.5148028255        2.3597202987
 C          2.1149912317       -2.7274893911        1.8759828805
 C          1.8900109858       -1.9209973835        0.7656582646
 N          2.9032830326       -1.1002414457        0.2438411685
 S          2.4410265339        0.4144353216       -0.3539431012
 O          1.4095018971        0.9863600529        0.4819143627
 O          2.1427081913        0.2863812840       -1.7582198705
 C          3.9682738740        1.3139848225       -0.1504039724
 C          4.9527721442        1.1827440260       -1.1116885707
 C          6.1552318247        1.8484255652       -0.9338415865
 C          6.3526583433        2.6288537740        0.1957553561
 C          5.3545855897        2.7528833116        1.1505976797
 C          4.1500330250        2.0886246963        0.9796498731
 H          3.3417419137        2.1601766874        1.6898261653
 H          5.5090810752        3.3628877048        2.0258891842
 H          7.2891939263        3.1460086519        0.3316209687
 H          6.9320297157        1.7566001420       -1.6755321523
 H          4.7482811521        0.5726123884       -1.9760259803
 H          3.7083815703       -1.0323509248        0.8519214941
 H          3.0825477851       -2.7304998129        2.3542970862
 H          1.2550770846       -4.1421616799        3.2215892241
 H         -0.9761409010       -4.0625433647        2.1803388805
 C         -1.7681217059       -2.5836059670        0.0302709547
 H         -2.4994143428       -2.8797492143        0.8006396362
 C         -1.9430124488       -3.5234090596       -1.1508527401
 C         -0.7900293685       -4.0783592477       -1.9263740584
 C         -1.5797544668       -4.9734223831       -1.0219069381
 H         -2.2337626152       -5.7083783780       -1.4657220909
 H         -1.1106412046       -5.2914632333       -0.1034622358
 H         -0.9069273696       -4.1727639240       -2.9949272572
 H          0.2063129620       -3.7913931022       -1.6264170343
 H         -2.8358999831       -3.2920672297       -1.7218272703
 O         -2.6082472583       -0.8142865065        1.9923767943
