  62
        -98.93926637
 C          2.5450640354        0.1702332725        0.0339095126
 C          2.2539896232        1.1735543453       -0.9160644841
 C          1.6369188464        2.4122208472       -0.4104617436
 C          1.3911705069        2.5317978429        0.9078872873
 C          0.7908235756        3.6612266587        1.7199787795
 C          0.2104971980        4.8904822277        1.0282098089
 C         -1.1171531190        4.6429193046        0.3082065266
 H         -1.9018303009        4.5469474214        1.0626330077
 H         -1.3479851805        5.5165846901       -0.3050818740
 C         -1.1788659007        3.3917714493       -0.5652503200
 H         -0.9786699468        2.5019145714        0.0357913171
 H         -2.2026631124        3.2892812209       -0.9380957165
 C         -0.2515241399        3.3891953416       -1.7779292876
 H         -0.4568292231        2.4723566305       -2.3399062446
 H         -0.4836495656        4.2400205723       -2.4231352812
 C          1.2499469199        3.4172865386       -1.4579392037
 H          1.5721738887        4.4182591678       -1.1821800026
 H          1.7924429739        3.1342069385       -2.3654997482
 H          0.0266752957        5.6333152695        1.8090580969
 H          0.9468828820        5.3191262907        0.3545028936
 H          0.0182720673        3.2001004463        2.3440105582
 H          1.5855876130        3.9848750710        2.4010588960
 O          1.7289070521        1.5494104733        1.7942657621
 C          2.2500291948        0.3357661942        1.3855705360
 O          2.4224342464       -0.4867231486        2.3062147410
 O          2.4975796554        1.0390748876       -2.1483821847
 C          3.0410729658       -1.1803851855       -0.4470908045
 C          1.9827459251       -2.2244850025       -0.1760082661
 C          2.2668161198       -3.5310046620        0.1975196451
 C          1.2387234923       -4.4315246317        0.4265274224
 C         -0.0845230847       -4.0489154543        0.3129204398
 C         -0.3789748099       -2.7396354775       -0.0569561102
 C          0.6511566439       -1.8582555199       -0.3292485033
 H          0.4095872385       -0.8553605955       -0.6497322013
 N         -1.7115218614       -2.2912293872       -0.1083940852
 S         -2.0750839124       -0.6747077698       -0.3614123966
 O         -1.8167284843       -0.2833960169       -1.7316961355
 O         -1.4398679515        0.1033530440        0.6714357960
 C         -3.8353054049       -0.7276411020       -0.0833030940
 C         -4.6993441327       -0.7572769890       -1.1611141870
 C         -6.0638072891       -0.8270161789       -0.9261859958
 C         -6.5385021451       -0.8677916261        0.3759324000
 C         -5.6593132639       -0.8352450383        1.4484339275
 C         -4.2944529695       -0.7651057396        1.2195907589
 H         -3.5725583206       -0.7285840142        2.0192058892
 H         -6.0314995526       -0.8638129578        2.4598442181
 H         -7.6003686462       -0.9220621989        0.5567946737
 H         -6.7494757633       -0.8488764114       -1.7578240577
 H         -4.2841488498       -0.7138395708       -2.1551613568
 H         -2.3691005880       -2.9325011224       -0.5250431061
 H         -0.8831365607       -4.7451098649        0.5144765806
 H          1.4744491463       -5.4456843300        0.7114634883
 H          3.2919274841       -3.8440244328        0.3120784273
 H          3.1502096984       -1.0806286949       -1.5384922406
 C          4.3895339879       -1.5217791859        0.1502611314
 C          5.3751137973       -2.3445434632       -0.6233536810
 C          5.6164424356       -0.8796635498       -0.4226104084
 H          6.3993023844       -0.5701084399        0.2530940023
 H          5.4791086432       -0.2168681500       -1.2647379441
 H          5.9982074719       -3.0425617326       -0.0848951307
 H          5.0852059207       -2.6772254301       -1.6086982803
 H          4.3452348435       -1.6471306348        1.2260819245
