  62
        -98.93562055
 C          1.8256617791        1.4334253197        0.3388285361
 C          1.5834640472        0.1819925364       -0.2750629700
 C          2.4165644482       -0.9527922104        0.1818514962
 C          3.3221434471       -0.7487864639        1.1554279396
 C          4.3107655915       -1.7329012694        1.7193082534
 C          5.5085610545       -1.9663422282        0.7806912783
 C          5.1608061734       -2.0700508215       -0.7029251262
 H          4.6173356845       -1.1736669819       -1.0077359865
 H          6.0993931834       -2.0838463207       -1.2632574503
 C          4.3622237969       -3.3088224527       -1.1015230150
 H          4.2125128980       -3.2665878729       -2.1833326357
 H          4.9547907531       -4.2002987306       -0.8831088738
 C          2.9962179501       -3.4664744805       -0.4333210370
 H          2.4746454140       -4.2796791836       -0.9469533557
 H          3.1076484850       -3.7786297149        0.6016346583
 C          2.0863961156       -2.2445821783       -0.5272350790
 H          1.9581297201       -1.9775104680       -1.5821257500
 H          1.0893830886       -2.5340329414       -0.1713378182
 H          6.0269787808       -2.8718580648        1.0998523453
 H          6.1959813827       -1.1252674274        0.8999468124
 H          4.6805794645       -1.3085681765        2.6554268534
 H          3.8103118513       -2.6674803838        1.9560312846
 O          3.4906800143        0.4671359663        1.7495362085
 C          2.7501790552        1.5722273257        1.3756730590
 O          2.9924837150        2.6021231148        2.0371741465
 H         -0.4341312222        1.3338264614        1.7055334668
 C         -1.0340356116        1.6467938881        0.8588344976
 C         -0.4297738498        2.3558253649       -0.1724824082
 C         -1.2117417028        2.7391720830       -1.2541620463
 C         -2.5606202418        2.4287384302       -1.2914179064
 C         -3.1558135560        1.7175959742       -0.2666569401
 C         -2.3767020722        1.3084004606        0.8087589694
 N         -2.9550204240        0.5428928012        1.8340629476
 S         -4.0518827259       -0.6498804545        1.4175930043
 O         -5.3699759723       -0.0709699398        1.3197284690
 O         -3.8952674315       -1.6715330805        2.4311835009
 C         -3.5633405778       -1.2772282359       -0.1809355627
 C         -2.2432752437       -1.6148833299       -0.4006794253
 C         -1.8720249805       -2.0920463467       -1.6467146055
 C         -2.8243186701       -2.2355748591       -2.6434972423
 C         -4.1491440403       -1.9053565862       -2.4040211057
 C         -4.5237180661       -1.4167180519       -1.1630788747
 H         -5.5385913367       -1.1316592925       -0.9371573244
 H         -4.8881483448       -2.0187357674       -3.1807708837
 H         -2.5284082169       -2.6036309314       -3.6131631554
 H         -0.8363113357       -2.3223482650       -1.8351852813
 H         -1.5129836272       -1.4876516420        0.3829538104
 H         -2.2965363492        0.2100514316        2.5224181330
 H         -4.2051787094        1.4702723779       -0.2813121933
 H         -3.1562289053        2.7387504013       -2.1362278495
 H         -0.7651787208        3.2685867653       -2.0790462889
 C          1.0403835643        2.6765348073       -0.0415881350
 H          1.1532844102        3.3548777894        0.8212681060
 C          1.6042192221        3.4152182118       -1.2477715581
 C          3.0313112868        3.2388226126       -1.6713324432
 C          1.9244965409        2.7077342151       -2.5290660092
 H          1.7140113828        3.2114127058       -3.4611225446
 H          1.7609690006        1.6424668763       -2.5593470056
 H          3.5747255128        4.1093432349       -2.0074872367
 H          3.6380564208        2.5359813468       -1.1185475454
 H          1.2064675621        4.4218463862       -1.3303492277
 O          0.7191427243       -0.0029103960       -1.1685076644
