  62
        -98.94123099
 C          2.0200894340        1.2347227328        0.1297837257
 C          2.7910603662        0.6515562407        1.1675662276
 C          3.9638690306       -0.1227493937        0.7478243429
 C          4.2371739567       -0.2595447143       -0.5621867892
 C          5.4112574090       -0.9942156979       -1.1502098338
 C          5.1927819640       -2.5064493580       -1.2954589472
 C          5.2084580948       -3.2948445088        0.0148331165
 H          5.2613655926       -4.3530995444       -0.2486450032
 H          6.1136909155       -3.0527902305        0.5725533716
 C          3.9776941224       -3.0690114301        0.9041921278
 H          3.6069709908       -4.0315798635        1.2642794519
 H          3.1773511446       -2.6215282550        0.3096402169
 C          4.2342838765       -2.1938339155        2.1313451849
 H          4.9375074070       -2.6970342028        2.7985400558
 H          3.2903705523       -2.0710181065        2.6687462900
 C          4.7807854347       -0.7968014750        1.8086887656
 H          4.7199561562       -0.1880295921        2.7141463073
 H          5.8240522870       -0.8631593034        1.5008232964
 H          5.9904605421       -2.8909777488       -1.9351895693
 H          4.2441734633       -2.6745728172       -1.8110655015
 H          6.2993256649       -0.8101119790       -0.5448584597
 H          5.5743327280       -0.5736927299       -2.1448938483
 O          3.4560752889        0.2863915723       -1.5299131533
 C          2.3160069612        1.0201544653       -1.2177308374
 O          1.6826013906        1.4082920542       -2.2155984056
 O          2.5079005526        0.7694773660        2.3898392145
 C          0.7904616176        2.0297861631        0.5320580833
 C         -0.4086466472        1.5529574386       -0.2482728960
 C         -1.1687173086        2.3683419422       -1.0749555769
 C         -2.2450766661        1.8482492892       -1.7734900198
 C         -2.5902011877        0.5148593859       -1.6595635104
 C         -1.8435880116       -0.3076154199       -0.8245049083
 C         -0.7713403899        0.2168798169       -0.1202998229
 H         -0.1854863500       -0.4270075487        0.5248127423
 N         -2.1877701345       -1.6630796888       -0.6945617414
 S         -3.8035732807       -2.0675287177       -0.5458264108
 O         -3.8110966637       -3.3271583312        0.1647201770
 O         -4.4267257729       -2.0755643306       -1.8457694221
 C         -4.5191758521       -0.7792903846        0.4596388135
 C         -5.5100936697        0.0303953448       -0.0564910999
 C         -6.0279640074        1.0432047093        0.7350324409
 C         -5.5455376075        1.2296333663        2.0209311193
 C         -4.5518987400        0.4051851831        2.5267886895
 C         -4.0316987482       -0.6096359746        1.7404749486
 H         -3.2630725502       -1.2717495604        2.1062110046
 H         -4.1783586995        0.5507629300        3.5277246443
 H         -5.9460840527        2.0207740130        2.6348128087
 H         -6.8021273799        1.6842027383        0.3453247815
 H         -5.8552009318       -0.1488706165       -1.0616642647
 H         -1.6159249138       -2.1750747971       -0.0400028760
 H         -3.4101953214        0.0921368207       -2.2169368267
 H         -2.8186846625        2.4900777159       -2.4244983311
 H         -0.9017817518        3.4048645478       -1.1964066835
 H          0.6319621122        1.7594244198        1.5898508048
 C          0.9756780431        3.5390517792        0.5013456415
 C          2.3279669365        4.1540711008        0.6999143834
 C          1.6500694246        4.2493456250       -0.6324168663
 H          1.2594532361        5.2088446898       -0.9389063863
 H          2.0242199140        3.6508317862       -1.4476569654
 H          2.4036539164        5.0443664625        1.3060278650
 H          3.1724735804        3.4869831343        0.7965676705
 H          0.1432778670        4.0554266680        0.9695192796
