  62
        -98.94044072
 C          2.5611809069        0.0185521234        0.4620137301
 C          2.1577143760       -0.5871964347       -0.7497364898
 C          1.7651796948       -2.0070613091       -0.6801314033
 C          1.7767221140       -2.6371195650        0.5093690860
 C          1.4596349788       -4.0684518191        0.8929712426
 C          0.8440701946       -5.0287822834       -0.1197263557
 C         -0.6129210175       -4.7271299253       -0.4731258095
 H         -0.9059922648       -5.3682298824       -1.3072253715
 H         -1.2366391064       -4.9891428627        0.3851944988
 C         -0.9211804487       -3.2755303990       -0.8322144408
 H         -1.9979420059       -3.1899060872       -1.0067806508
 H         -0.6938983385       -2.6189979887        0.0112353233
 C         -0.2166928642       -2.7377746458       -2.0753520273
 H         -0.6141822419       -1.7352231056       -2.2565205395
 H         -0.4607162100       -3.3620977617       -2.9381513596
 C          1.3117937247       -2.6223708309       -1.9729121261
 H          1.7915353498       -3.5851478402       -2.1348416529
 H          1.6498700581       -1.9473966925       -2.7652492273
 H          1.4583560380       -5.0724506189       -1.0142242315
 H          0.8732670921       -6.0231216806        0.3340117455
 H          2.4065137997       -4.4926127095        1.2451800913
 H          0.8065155890       -4.0042441534        1.7694481590
 O          2.1669301394       -2.0042180103        1.6563222041
 C          2.5439308515       -0.6749010993        1.6685971338
 O          2.8448762492       -0.2337404002        2.7980565911
 H          0.3493611468        1.0810324377        0.9587828012
 C          0.4988615181        1.9485733186        0.3329746328
 C          1.7883072996        2.3226889151       -0.0211008658
 C          1.9566953565        3.4517757026       -0.8127265012
 C          0.8559459043        4.1630847482       -1.2584442007
 C         -0.4274897820        3.7571962468       -0.9421516413
 C         -0.6058589410        2.6368223481       -0.1389043320
 N         -1.8962365509        2.1903159462        0.2186384058
 S         -2.1922017396        0.5338954967        0.0181448481
 O         -1.5502262183       -0.2001271988        1.0793415783
 O         -1.8718081054        0.1434467152       -1.3356515926
 C         -3.9591587007        0.5006555662        0.2598271696
 C         -4.7983925903        0.3377944279       -0.8255195394
 C         -6.1693265870        0.3388884450       -0.6191315973
 C         -6.6743394778        0.5062082230        0.6612628567
 C         -5.8190222587        0.6682474042        1.7414056479
 C         -4.4477665178        0.6654980475        1.5420382392
 H         -3.7442116168        0.7782187310        2.3504656645
 H         -6.2147881079        0.7959038892        2.7360444999
 H         -7.7411656988        0.5075051564        0.8195283687
 H         -6.8361098083        0.2097757571       -1.4563233115
 H         -4.3588116082        0.2058353408       -1.8011683080
 H         -2.6163683106        2.7137884000       -0.2643581292
 H         -1.2845706801        4.2987674432       -1.3136696551
 H          0.9996890506        5.0361674284       -1.8769205166
 H          2.9491404247        3.7683908014       -1.0895865377
 C          2.9390665617        1.4877978902        0.4893215986
 H          3.1010335079        1.7395847097        1.5485948491
 C          4.2295149519        1.7180720933       -0.2706131667
 C          5.1782207788        2.7978161580        0.1533853205
 C          5.5268747589        1.3596551149        0.3876786563
 H          6.3027803866        0.9092530577       -0.2127490909
 H          5.4776672118        0.9765239515        1.3968532095
 H          5.7207770223        3.3358555507       -0.6093149387
 H          4.9048762631        3.3963072208        1.0092710327
 H          4.1288814064        1.5064714932       -1.3290014723
 O          2.1394242690        0.0253899223       -1.8506119011
