  62
        -98.93771238
 C         -1.9628264427       -1.0243759135        0.0532296112
 C         -2.3088828876       -0.0623160159        1.0289302683
 C         -2.4603121641        1.3196244844        0.5528994834
 C         -2.2367951968        1.5912238367       -0.7460044195
 C         -2.4103494220        2.9349864450       -1.3960234085
 C         -3.9079483953        3.2237743879       -1.6252624638
 C         -4.4547566676        4.3994269923       -0.8152229025
 H         -4.1166028410        5.3321453805       -1.2711554982
 H         -5.5436608724        4.3699240382       -0.8908232205
 C         -4.0584778545        4.4306415028        0.6638458703
 H         -4.7174596905        5.1496163099        1.1550781937
 H         -3.0436223561        4.8183019788        0.7644401581
 C         -4.1465049583        3.0928665868        1.4093917031
 H         -4.8567738752        2.4254161847        0.9212240969
 H         -4.5297793509        3.2876022916        2.4130173403
 C         -2.8004482862        2.3637987395        1.5806457993
 H         -1.9884155702        3.0951211572        1.6352884957
 H         -2.8139985089        1.8224847362        2.5316299695
 H         -4.0805011577        3.4268515196       -2.6831536313
 H         -4.4698555162        2.3195430149       -1.3826482531
 H         -1.9604282847        3.7028681960       -0.7702904471
 H         -1.8757416879        2.9042420445       -2.3457461461
 O         -1.8994758810        0.6396317473       -1.6546561706
 C         -1.7320302324       -0.6833126596       -1.2792029083
 O         -1.4015976857       -1.4454304575       -2.2082554983
 H          0.4401274662       -0.9794496892        0.9005417513
 C          0.6962102982       -1.9335815890        0.4612654637
 C         -0.3062709317       -2.8529217172        0.1785040032
 C          0.0533664103       -4.0780247559       -0.3680418302
 C          1.3794143256       -4.3534999984       -0.6550865121
 C          2.3669879209       -3.4159398633       -0.4176333307
 C          2.0191741248       -2.1945228753        0.1492357653
 N          2.9946658681       -1.2202446794        0.4286041126
 S          2.5633291963        0.4023673070        0.2360111336
 O          1.9156429088        0.8573026484        1.4419534007
 O          1.8334022135        0.5900315532       -0.9976857534
 C          4.1829270891        1.1410209241        0.1152803094
 C          4.8639749111        1.4515503461        1.2770995299
 C          6.1390270769        1.9867449134        1.1835479779
 C          6.7092727934        2.1999696360       -0.0627045800
 C          6.0126990867        1.8858236793       -1.2201048596
 C          4.7375403450        1.3492815235       -1.1335494375
 H          4.1539494483        1.0976117462       -2.0048869202
 H          6.4563571288        2.0558172091       -2.1878077785
 H          7.7017285426        2.6161908642       -0.1329549137
 H          6.6818449200        2.2352404074        2.0811403512
 H          4.3753359450        1.2755515466        2.2211708959
 H          3.8812578261       -1.4189042974       -0.0156957102
 H          3.3966076351       -3.6230540938       -0.6667118776
 H          1.6444672606       -5.3062629648       -1.0878259834
 H         -0.7061354698       -4.8118297134       -0.5827475951
 C         -1.7323998312       -2.4619481976        0.4816945027
 H         -1.8679240351       -2.4684335654        1.5741277605
 C         -2.7589344213       -3.3819026143       -0.1453125430
 C         -3.2001860279       -4.6243556282        0.5675976880
 C         -4.1287289549       -3.4537353411        0.4579820313
 H         -4.9794776141       -3.5264682836       -0.2026763144
 H         -4.3107515388       -2.8578896538        1.3405640126
 H         -2.7590539767       -4.8306802295        1.5309761540
 H         -3.4178108341       -5.5046338190       -0.0182060661
 H         -2.6854980026       -3.4059085029       -1.2268731932
 O         -2.4808960871       -0.3480564696        2.2468031645
