  62
        -98.94478769
 C         -1.8540572670       -0.7364914825        0.4109669684
 C         -2.4639914127       -0.1476709504       -0.7233243356
 C         -3.5255648520        0.8269226084       -0.4386262566
 C         -3.8224624723        1.1430489779        0.8348622160
 C         -4.8600000720        2.1365447336        1.2828228143
 C         -6.2829402118        1.5653112978        1.3513683333
 C         -6.9483010933        1.3115650601       -0.0018943880
 H         -8.0059359177        1.1224366850        0.1922734372
 H         -6.8858200088        2.2139551414       -0.6109549456
 C         -6.3688578498        0.1216135614       -0.7795654793
 H         -5.7918290843       -0.5108041355       -0.1010103114
 H         -7.1851918126       -0.4899595531       -1.1703075446
 C         -5.4855229461        0.5089284311       -1.9656926280
 H         -5.1009368178       -0.4074306139       -2.4204438344
 H         -6.0855102117        1.0302245075       -2.7149065194
 C         -4.2870283081        1.3938403464       -1.5984094029
 H         -4.6212581707        2.4074167454       -1.3772293332
 H         -3.6088384111        1.4278747495       -2.4547834073
 H         -6.2590201536        0.6363248533        1.9256688425
 H         -6.8947750878        2.2818818981        1.9042615253
 H         -4.5698381506        2.4585423371        2.2854358487
 H         -4.8460825271        3.0042266178        0.6224679960
 O         -3.1728695692        0.5940520174        1.8964562641
 C         -2.1893409748       -0.3652891722        1.7123188607
 O         -1.6846402061       -0.7935817797        2.7711593628
 O         -2.1410442214       -0.4163258963       -1.9087378765
 C         -0.7669801114       -1.7807678889        0.2306047415
 C          0.4051213538       -1.1831553211       -0.5105827290
 C          1.0375438148       -1.8071113996       -1.5773262038
 C          2.1083191194       -1.1989305714       -2.2109559950
 C          2.5773908143        0.0315960741       -1.7913539770
 C          1.9651816143        0.6542766292       -0.7101648364
 C          0.8945971696        0.0432008737       -0.0766283025
 H          0.4171857413        0.5320205318        0.7642426068
 N          2.4463297405        1.8948322935       -0.2598649570
 S          4.1020990251        2.0973599133       -0.1334494631
 O          4.2843740820        3.0858122322        0.9065539826
 O          4.6493143333        2.4366297060       -1.4235099035
 C          4.7355529103        0.5128660472        0.3891990748
 C          4.2551457281       -0.0261850477        1.5663026796
 C          4.7165396818       -1.2676908181        1.9721775794
 C          5.6467285489       -1.9453477245        1.1986136598
 C          6.1238991061       -1.3880751879        0.0227024939
 C          5.6638336951       -0.1475931256       -0.3895033656
 H          6.0042885678        0.3209809679       -1.2984737051
 H          6.8484758325       -1.9163822456       -0.5755727304
 H          6.0006365915       -2.9132882976        1.5164698860
 H          4.3451381439       -1.7017693076        2.8867100941
 H          3.5343342316        0.5253723126        2.1489579650
 H          1.9663221686        2.2535748773        0.5518433365
 H          3.3971198738        0.5258989382       -2.2869151245
 H          2.5821625940       -1.6894811809       -3.0472210956
 H          0.6861550527       -2.7655428234       -1.9214580400
 H         -0.4274463370       -2.0421423687        1.2436787715
 C         -1.3342020234       -3.0206829924       -0.4281453760
 C         -0.7317545168       -4.3644939462       -0.1520962489
 C         -2.0728450727       -4.0133429385        0.4166693216
 H         -2.9509689271       -4.4885278673        0.0056880302
 H         -2.1443051655       -3.8078831378        1.4752186210
 H         -0.6906907459       -5.0861484000       -0.9538928742
 H          0.1085606696       -4.4064089828        0.5240596638
 H         -1.7207707625       -2.8241213506       -1.4213894510
