  62
        -98.93795391
 C         -1.3498917234       -1.4132601390       -0.7067045609
 C         -2.6192684803       -1.3145464839       -0.0800861509
 C         -3.4262270794       -0.1328684028       -0.4037566547
 C         -2.9500619332        0.7743761117       -1.2747352436
 C         -3.6541884034        2.0140199101       -1.7595164116
 C         -3.9072976979        3.1043316439       -0.7005982999
 C         -5.2867961532        3.0293572985       -0.0342198386
 H         -5.9738385251        2.5163804540       -0.7083753071
 H         -5.6698438855        4.0439821968        0.0924725895
 C         -5.3294909897        2.3615021867        1.3434696522
 H         -6.3748271651        2.1528907300        1.5814503280
 H         -4.9550734195        3.0639890605        2.0917260824
 C         -4.5226477088        1.0706401571        1.4867216590
 H         -4.7941570742        0.6021103843        2.4350525787
 H         -3.4575147539        1.3088177198        1.5561277848
 C         -4.7155460762        0.0587546815        0.3401836319
 H         -5.5049452361        0.3865616537       -0.3345810700
 H         -4.9899278557       -0.9167605811        0.7466358046
 H         -3.8277148251        4.0657756552       -1.2108776804
 H         -3.1149383178        3.0721049061        0.0479003469
 H         -4.6034794196        1.7237882762       -2.2157017615
 H         -3.0155082301        2.4231464966       -2.5449724732
 O         -1.7385162096        0.6358313616       -1.8715817549
 C         -0.8925118928       -0.4240031115       -1.5764454676
 O          0.1997463800       -0.3576754080       -2.1740248025
 O         -3.0640252876       -2.1902669859        0.7109376973
 C         -0.5016438831       -2.6097840816       -0.3073833361
 C          0.3086310217       -2.2608737902        0.9198433287
 C          0.1971902382       -3.0087561592        2.0850216340
 C          0.9006241633       -2.6462869195        3.2201612125
 C          1.7042530038       -1.5218231375        3.2177591329
 C          1.8250074554       -0.7664984179        2.0544378605
 C          1.1527164179       -1.1585564587        0.9071190066
 H          1.2461347365       -0.5718951162        0.0088282266
 N          2.6331054973        0.3763347699        2.0397781100
 S          2.3146425322        1.7260976611        1.0966554242
 O          2.7810799160        2.8356277401        1.9052524629
 O          0.9336517914        1.7830774759        0.6816886660
 C          3.4347909030        1.5306098901       -0.2733783483
 C          4.7705827921        1.7874890172       -0.0237974821
 C          5.6905035293        1.6279530949       -1.0457300495
 C          5.2623667448        1.2140252728       -2.2987058587
 C          3.9202315083        0.9627838788       -2.5332184238
 C          2.9921424587        1.1216124845       -1.5138178880
 H          1.9441422018        0.9224114318       -1.6794608620
 H          3.5794722796        0.6393261864       -3.5039728444
 H          5.9768578708        1.0876250721       -3.0968949305
 H          6.7347740423        1.8251312570       -0.8644957585
 H          5.0563267223        2.1198636083        0.9603459185
 H          3.0126279857        0.6360632945        2.9380550202
 H          2.2312736783       -1.2209777370        4.1105552164
 H          0.8063681678       -3.2328241656        4.1214636497
 H         -0.4636561153       -3.8625671896        2.1049744209
 H         -1.2196961495       -3.3898332183       -0.0177654017
 C          0.3852081808       -3.1599605197       -1.4046496212
 C          0.8226327575       -4.5913769760       -1.3322943059
 C         -0.1738385462       -4.1631193572       -2.3665611724
 H          0.1370119299       -4.1124897175       -3.3990004230
 H         -1.2046744971       -4.4591634729       -2.2361634586
 H          1.8224479737       -4.8392741471       -1.6533178846
 H          0.4673488819       -5.1829467318       -0.5022516098
 H          1.0888951989       -2.4373365679       -1.7951979561
