  62
        -98.93973058
 C          1.7888112081        0.6787054625        0.9168572833
 C          2.9732333309        1.0964240302        0.2606442304
 C          4.0486599981        0.0964637957        0.1841987598
 C          3.8684961875       -1.1341566315        0.6941911130
 C          4.8767696518       -2.2508456830        0.7013672513
 C          4.9223884441       -3.0617271244       -0.6010350236
 C          5.5584743067       -2.3450133083       -1.7928149083
 H          6.5354286651       -1.9566132450       -1.5031002825
 H          5.7239562230       -3.0965140279       -2.5674583858
 C          4.7051906002       -1.2118721310       -2.3798646454
 H          4.6884621845       -1.2950696795       -3.4690250717
 H          3.6731873117       -1.3167978716       -2.0366016402
 C          5.1997396361        0.1941966343       -2.0404811782
 H          4.5032652215        0.9166713578       -2.4736705479
 H          6.1791805811        0.3578777658       -2.4956111847
 C          5.3056508521        0.4804400270       -0.5370166772
 H          5.4514779001        1.5552002801       -0.4032859962
 H          6.1622043363       -0.0438707262       -0.1138847213
 H          3.9055245136       -3.3658175736       -0.8600873572
 H          5.4988962834       -3.9677838195       -0.4004312296
 H          5.8674406960       -1.8486077802        0.9153764980
 H          4.5912484336       -2.9220199642        1.5143023537
 O          2.7095019213       -1.5062582428        1.2979503952
 C          1.6512088384       -0.6211232817        1.4149527616
 O          0.6504503871       -1.1012846920        1.9822973174
 O          3.1517303349        2.2344781642       -0.2480744332
 C          0.5781513575        1.5749914383        1.1219587986
 C         -0.3414846772        1.5654144190       -0.0772127324
 C          0.1521904222        1.6907979116       -1.3707965563
 C         -0.7017938652        1.6530144244       -2.4585234192
 C         -2.0655267143        1.5030076964       -2.2789226977
 C         -2.5715121482        1.3977283424       -0.9911054063
 C         -1.7114527416        1.4274949421        0.0998605855
 H         -2.1123558931        1.3232357925        1.0991134703
 N         -3.9671023945        1.2492489959       -0.8227673200
 S         -4.6148912970       -0.2484661805       -1.2091875673
 O         -4.0403253682       -0.6902709244       -2.4528954844
 O         -6.0499365566       -0.0871505412       -1.1784699882
 C         -4.1064414692       -1.3012025189        0.1385070026
 C         -2.7755313280       -1.6588369976        0.2323825564
 C         -2.3497503716       -2.3750144285        1.3401439790
 C         -3.2635478458       -2.7335755000        2.3199533892
 C         -4.5999980180       -2.3814588920        2.2036746607
 C         -5.0260830474       -1.6456106276        1.1097420033
 H         -6.0506919523       -1.3340721525        0.9854444899
 H         -5.3057781730       -2.6664292549        2.9674146142
 H         -2.9250922266       -3.2874061957        3.1814937646
 H         -1.3031361467       -2.6124600735        1.4485295673
 H         -2.0893938149       -1.3705582343       -0.5483966385
 H         -4.2931572693        1.5210212600        0.0947026346
 H         -2.7426960703        1.4527142885       -3.1156265024
 H         -0.3009603223        1.7426851039       -3.4569841023
 H          1.2130924595        1.8207050868       -1.5184478992
 H          0.0252779680        1.1386162860        1.9654112457
 C          0.9423419576        3.0040114670        1.4795943869
 C         -0.0166654033        3.8261842943        2.2839908390
 C          1.2618002684        3.3462729764        2.9021054486
 H          2.0471655466        4.0613458710        3.0948335906
 H          1.2085496341        2.5505159829        3.6311990217
 H         -0.1138769906        4.8754298137        2.0513665127
 H         -0.9368018448        3.3605066095        2.6029620042
 H          1.5121234482        3.5041997934        0.7078747121
