  62
        -98.94593763
 C         -2.1180570678       -1.4922340826       -0.0019855086
 C         -1.8343361174       -0.3710034050       -0.8186954227
 C         -2.8940153432        0.6457294909       -0.8930008944
 C         -4.0491870760        0.4466281122       -0.2326760848
 C         -5.1865742749        1.4243781302       -0.1805022230
 C         -5.0534002000        2.3664690443        1.0244297259
 C         -3.6693286827        3.0006897621        1.1640724778
 H         -3.7044467540        3.6676514242        2.0282187224
 H         -2.9399180348        2.2196522434        1.3910595564
 C         -3.2028193378        3.7858580488       -0.0696303642
 H         -2.7719761473        4.7326783617        0.2622548627
 H         -4.0589033189        4.0243822688       -0.7018907617
 C         -2.1346218557        3.0774052430       -0.9048385652
 H         -1.7220664720        3.8028678737       -1.6110029891
 H         -1.3215963080        2.7465309000       -0.2538928939
 C         -2.6183842372        1.8705881349       -1.7186768616
 H         -3.4964129593        2.1476421618       -2.3055477488
 H         -1.8189989223        1.5891454690       -2.4102396729
 H         -5.2623936183        1.7972081431        1.9332605293
 H         -5.8080765415        3.1500490221        0.9345142401
 H         -5.2086542018        1.9993731371       -1.1041383533
 H         -6.1185829831        0.8637214497       -0.0904815486
 O         -4.2964700317       -0.6609347650        0.5131413765
 C         -3.3333385221       -1.6444749851        0.6653681811
 O         -3.6725975477       -2.5893067837        1.4065114936
 H          1.4837557894       -2.4903517047       -0.8707887835
 C          1.3977030846       -1.9842945959        0.0775832805
 C          0.1827365782       -1.9551971112        0.7407583463
 C          0.1060227369       -1.2856211928        1.9599316856
 C          1.2160533160       -0.6641070131        2.4979949786
 C          2.4271452302       -0.6863280166        1.8273368890
 C          2.5115955856       -1.3448624184        0.6087278970
 N          3.7292985144       -1.3550461703       -0.0897692478
 S          4.6282417244        0.0541699396       -0.1369753054
 O          5.3904177758       -0.0289361883       -1.3637875633
 O          5.4069647627        0.1694692810        1.0720539834
 C          3.4547898954        1.3966465907       -0.2224869842
 C          3.5615856093        2.4446830663        0.6695139107
 C          2.6536130459        3.4881626360        0.5907281141
 C          1.6563169624        3.4636598683       -0.3718673425
 C          1.5627864594        2.4041276544       -1.2608210340
 C          2.4703676583        1.3606445048       -1.1895332247
 H          2.4049412396        0.5263501028       -1.8685868839
 H          0.7786794638        2.3704474821       -1.9994698561
 H          0.9457161342        4.2732565396       -0.4298809315
 H          2.7233984175        4.3133516312        1.2812048888
 H          4.3477338136        2.4193282610        1.4068471580
 H          3.6791518560       -1.7890191177       -0.9996992489
 H          3.3038303269       -0.2071069056        2.2319933802
 H          1.1400606350       -0.1525260556        3.4455148889
 H         -0.8437890841       -1.2565689603        2.4771476910
 C         -1.0723187344       -2.5787974642        0.1812550702
 H         -1.4777469958       -3.2698993015        0.9335428657
 C         -0.8652065500       -3.3361697051       -1.1132664094
 C         -0.3075725632       -4.7268905743       -1.0876380063
 C         -1.7517750455       -4.5038179821       -1.4199690543
 H         -2.0761655549       -4.6512716510       -2.4392474924
 H         -2.4963866684       -4.7691124026       -0.6835910897
 H          0.3582157400       -5.0330679395       -1.8806230309
 H         -0.0686112424       -5.1512791067       -0.1242229890
 H         -0.5937352591       -2.6898869917       -1.9400319402
 O         -0.7584417295       -0.2237628552       -1.4533973753
