  62
        -98.94190675
 C          1.3170095194        1.3660673015        0.7304464989
 C          1.8758587792        1.0857766618       -0.5411211513
 C          2.7936722901       -0.0632879975       -0.5979549214
 C          2.9963554910       -0.8062245172        0.5042640086
 C          3.8892780220       -2.0103868965        0.5758277384
 C          3.1234789929       -3.3038027772        0.2679463088
 C          2.2701519724       -3.2325325180       -0.9979961809
 H          1.8056040631       -4.2109237984       -1.1324936306
 H          1.4631622519       -2.5120707586       -0.8450307407
 C          3.0467649017       -2.8625976475       -2.2690994812
 H          4.1137849818       -3.0280749167       -2.1151550515
 H          2.7297610419       -3.5243084279       -3.0776678210
 C          2.8222683104       -1.4295922378       -2.7544075613
 H          1.7502743502       -1.2240846086       -2.8127672610
 H          3.2269571100       -1.3455572476       -3.7666171114
 C          3.4775370298       -0.3302265072       -1.9093744216
 H          4.5324527601       -0.5657868363       -1.7525704220
 H          3.4145989289        0.6038642627       -2.4754167517
 H          3.8459189334       -4.1170037766        0.1777391087
 H          2.4667196833       -3.5215316776        1.1121226591
 H          4.7094738816       -1.8846233460       -0.1286894719
 H          4.2985932923       -2.0725637261        1.5857460783
 O          2.3732607812       -0.5582583276        1.6853194388
 C          1.5220200404        0.5253236818        1.8268494089
 O          1.0104163407        0.6272727415        2.9604481491
 H         -1.2865400701        0.5602061294        0.4327074898
 C         -1.4731519509        1.3868423892       -0.2368058202
 C         -0.6874533818        2.5281942498       -0.1343381106
 C         -0.9247515029        3.5798242095       -1.0081324406
 C         -1.9256984431        3.4807943287       -1.9592324203
 C         -2.7204714723        2.3524022880       -2.0417334699
 C         -2.4912264812        1.2937389883       -1.1693287999
 N         -3.2684396303        0.1267336377       -1.2211579795
 S         -3.7108091792       -0.6535795425        0.1927816908
 O         -4.9334374988       -1.3489235934       -0.1507232487
 O         -3.7918482796        0.2653640176        1.3033075307
 C         -2.4381648282       -1.8682965214        0.4678841405
 C         -2.3406682277       -2.9126863715       -0.4312377194
 C         -1.3915955869       -3.8976035607       -0.2153391196
 C         -0.5565128065       -3.8216537199        0.8894917101
 C         -0.6589494271       -2.7627837199        1.7777145300
 C         -1.6124475379       -1.7781433007        1.5702882102
 H         -1.7194283583       -0.9468328307        2.2511388402
 H         -0.0023231968       -2.6872370993        2.6306643898
 H          0.1762534541       -4.5940642694        1.0619216300
 H         -1.3051966964       -4.7214168107       -0.9051726995
 H         -3.0175649979       -2.9415543821       -1.2687648792
 H         -4.0244049105        0.1473266370       -1.8899005792
 H         -3.5074223325        2.2845090173       -2.7775877696
 H         -2.0949532940        4.2996170584       -2.6422303303
 H         -0.3128987736        4.4655866700       -0.9611318010
 C          0.3715625686        2.5362090608        0.9406279190
 H         -0.1361819010        2.3215830505        1.8966083692
 C          1.0561561976        3.8832939313        1.1145006187
 C          2.4441720877        3.9754149825        1.6734875482
 C          2.1864628369        4.3397850421        0.2438168082
 H          2.2277173160        5.3837610521       -0.0313665619
 H          2.5237576372        3.6700921323       -0.5303327518
 H          2.6627631373        4.7641719527        2.3777129280
 H          2.9606260385        3.0491068329        1.8807991981
 H          0.3573254371        4.6471551808        1.4429084688
 O          1.6416264183        1.7570824815       -1.5782247513
