  62
        -98.93837197
 C          2.2568918780        1.2145914584        0.2005580660
 C          2.4145210761        0.0673164868       -0.6093829565
 C          3.3401150054       -0.9764909037       -0.1195385152
 C          3.9524421806       -0.8049060461        1.0660224067
 C          4.9517662825       -1.7052490310        1.7417058927
 C          6.3518832590       -1.6128505065        1.1124790231
 C          6.3720777123       -1.5970282559       -0.4137988470
 H          5.7678351289       -0.7614268630       -0.7716359070
 H          7.4018404714       -1.4117210888       -0.7303415380
 C          5.9029152500       -2.8861051326       -1.0839147457
 H          6.0429500583       -2.7624255147       -2.1608261774
 H          6.5403688954       -3.7114322291       -0.7589920769
 C          4.4441312622       -3.2755965684       -0.8368465743
 H          4.3145298844       -3.7041869373        0.1532819375
 H          4.1924659117       -4.0657351994       -1.5506465464
 C          3.4356944998       -2.1530327935       -1.0617067128
 H          3.5911865513       -1.7283056613       -2.0600905282
 H          2.4294591406       -2.5906058505       -1.0882544878
 H          6.8162950374       -0.6869016075        1.4600251830
 H          6.9502745982       -2.4486947106        1.4785320447
 H          5.0154362311       -1.3766273837        2.7813967639
 H          4.5908687796       -2.7295522677        1.7410795607
 O          3.7542873408        0.3087521651        1.8265922819
 C          2.9195622895        1.3297160724        1.4266549475
 O          2.8500507917        2.2803682801        2.2311259504
 H         -0.2442983227        0.6158309606       -1.4630127714
 C         -0.7606303419        1.0944840880       -0.6443626123
 C         -0.0885178566        2.0309378736        0.1280956163
 C         -0.7548948284        2.6058705400        1.2042466622
 C         -2.0612299956        2.2530521485        1.4939091551
 C         -2.7271077478        1.3181328405        0.7213394258
 C         -2.0647488051        0.7280845179       -0.3467673799
 N         -2.7260452718       -0.2397310091       -1.1276344859
 S         -3.3775594784       -1.5550680525       -0.3085266131
 O         -2.6677692426       -1.8187370339        0.9228424882
 O         -3.4130192120       -2.6314624755       -1.2747902745
 C         -5.0466614545       -1.0426694739        0.0434218369
 C         -5.8471980018       -0.6658885057       -1.0173168513
 C         -7.1503710633       -0.2689852296       -0.7640432632
 C         -7.6291327397       -0.2577681847        0.5377468739
 C         -6.8138962817       -0.6418454631        1.5913526505
 C         -5.5087718065       -1.0393888777        1.3448171591
 H         -4.8363843759       -1.3408567604        2.1323425280
 H         -7.1876557976       -0.6326499010        2.6026628281
 H         -8.6437726506        0.0518448949        0.7325209502
 H         -7.7873599829        0.0302422964       -1.5807016320
 H         -5.4367885817       -0.6925431505       -2.0128949323
 H         -2.1672408314       -0.5610041271       -1.9063228443
 H         -3.7424368980        1.0341736710        0.9456341918
 H         -2.5658259044        2.7087997087        2.3322180843
 H         -0.2321902881        3.3186357422        1.8258325727
 C          1.3508574146        2.3825366320       -0.1634797774
 H          1.6387878080        3.1970546474        0.5143610103
 C          1.5398791153        2.8585763795       -1.5902504205
 C          1.0910003166        4.2396241376       -1.9578104802
 C          2.5536453163        3.9232153956       -1.8768773126
 H          3.1216301627        3.8596902884       -2.7929324867
 H          3.1160143849        4.3156017010       -1.0418705847
 H          0.6519110251        4.3962848823       -2.9309908021
 H          0.6612861660        4.8487287681       -1.1770381017
 H          1.4234040487        2.0760517199       -2.3278974967
 O          1.8287445586       -0.1094519635       -1.7129203719
