  62
        -98.94892422
 C          0.9006491694        1.3609473787        0.2079759703
 C          1.4529151536        0.2959059948        0.9557930646
 C          2.2681802009       -0.6603994066        0.1990060940
 C          2.3908631877       -0.5228378965       -1.1340814065
 C          3.1314721454       -1.4571925177       -2.0529027146
 C          4.6372050535       -1.1783814932       -2.1543984783
 C          5.4511867482       -1.5668689455       -0.9196634808
 H          5.2340393918       -2.6023620518       -0.6557237261
 H          6.5046522009       -1.5160156174       -1.2016658926
 C          5.2201016531       -0.6620735729        0.2984936483
 H          6.1823889390       -0.3938749704        0.7401387820
 H          4.7455005662        0.2674443497       -0.0242146927
 C          4.3740791658       -1.2914678795        1.4048865899
 H          4.2525013993       -0.5538340909        2.2019637430
 H          4.8994954081       -2.1540008778        1.8205151704
 C          2.9753750502       -1.7413089264        0.9602836916
 H          3.0432106842       -2.6501034929        0.3616624980
 H          2.3867583727       -1.9494917197        1.8566087685
 H          4.7811703323       -0.1169063320       -2.3689796905
 H          5.0162667572       -1.7443653033       -3.0085353314
 H          2.6857811849       -1.3312973463       -3.0424170251
 H          2.9710761801       -2.4877348218       -1.7332585242
 O          1.8211165603        0.5009174077       -1.8223428324
 C          1.0685467028        1.4671639403       -1.1733877589
 O          0.6207926752        2.3579282387       -1.9214026981
 O          1.2641686363        0.1438419433        2.1930708138
 C          0.0126878059        2.3723422695        0.9113332387
 C         -1.3618595577        2.3264497690        0.2907080540
 C         -2.0860132800        3.4530927013       -0.0745668217
 C         -3.3141402886        3.3200136752       -0.7000786795
 C         -3.8325254448        2.0717458757       -0.9904704478
 C         -3.1223448224        0.9375825104       -0.6116352789
 C         -1.9175007001        1.0749393682        0.0547706246
 H         -1.3711516114        0.1911786818        0.3504121134
 N         -3.6103276895       -0.3497032050       -0.8780505455
 S         -2.5443968290       -1.6032370256       -1.1854911417
 O         -1.3462067730       -1.1612534363       -1.8601169582
 O         -3.3463087530       -2.5797873922       -1.8953059145
 C         -2.1636183321       -2.2522578515        0.4272787314
 C         -0.8568148523       -2.5526175381        0.7538187089
 C         -0.5858572197       -3.0927277666        2.0010375804
 C         -1.6201312916       -3.3184718511        2.8953486668
 C         -2.9282630037       -3.0122543858        2.5514297477
 C         -3.2065870063       -2.4775099064        1.3043507770
 H         -4.2091034330       -2.2305054592        0.9976437022
 H         -3.7296213448       -3.1881533263        3.2507898484
 H         -1.4023396407       -3.7340922080        3.8664921271
 H          0.4315143479       -3.3274926828        2.2694000531
 H         -0.0765865129       -2.3425840631        0.0373087917
 H         -4.4265582408       -0.3873136537       -1.4708546347
 H         -4.7727401163        1.9711620863       -1.5108420228
 H         -3.8650733057        4.2029222349       -0.9869850102
 H         -1.6829367273        4.4346923721        0.1132635066
 H         -0.0613571221        2.0246837172        1.9527134650
 C          0.6414330147        3.7492169811        0.8970462424
 C          0.3461999661        4.7271394094        1.9940467712
 C          1.6930401853        4.0757884865        1.9133510458
 H          2.5394509093        4.6714710887        1.6059977090
 H          1.9370669708        3.3106762709        2.6357412703
 H          0.2697396931        5.7744858640        1.7437482814
 H         -0.3227765393        4.4098717859        2.7794010005
 H          0.7809209473        4.1301476852       -0.1086339652
