  62
        -98.94125297
 C         -2.5288547205       -0.3302111035        0.0152329807
 C         -2.1318127553       -1.3351486526       -0.8959762724
 C         -1.4555389178       -2.5109048612       -0.3251707406
 C         -1.2626384264       -2.5776847387        1.0034741465
 C         -0.6480353145       -3.6934366814        1.8128200901
 C          0.6131179652       -4.3675914188        1.2593323636
 C          1.5654883303       -3.4372034066        0.4936162593
 H          1.2856562556       -2.3923431987        0.6463284374
 H          2.5762440728       -3.5614031421        0.8883119517
 C          1.6095336631       -3.7356544728       -1.0067170747
 H          1.6523456749       -4.8183010020       -1.1505570347
 H          2.5261963684       -3.3079568450       -1.4205069376
 C          0.4488915387       -3.1648063064       -1.8199241171
 H          0.5321464901       -2.0743319064       -1.8485610602
 H          0.5522915998       -3.5193199633       -2.8489959857
 C         -0.9584997131       -3.5255338244       -1.3144942507
 H         -1.6439481934       -3.4763811010       -2.1653492274
 H         -0.9839573845       -4.5334054580       -0.9060373117
 H          1.1369171505       -4.8007614096        2.1133359110
 H          0.3296732335       -5.1957235917        0.6109194257
 H         -1.4171243911       -4.4544582512        1.9775853137
 H         -0.4246239454       -3.2442657609        2.7835311059
 O         -1.6803871768       -1.5936901512        1.8488425357
 C         -2.2688539699       -0.4327242382        1.3805982077
 O         -2.5308106953        0.4036107572        2.2676697067
 O         -2.3424145482       -1.2573678364       -2.1382045498
 C         -3.1104588779        0.9680723593       -0.5194223403
 C         -2.1284207858        2.0708403645       -0.2046845011
 C         -2.4636517035        3.2712377792        0.4061134450
 C         -1.4748103470        4.1815616974        0.7412912050
 C         -0.1413492258        3.9075087983        0.4993221243
 C          0.2007714017        2.7174135628       -0.1342283484
 C         -0.7941043385        1.8324941785       -0.5087315099
 H         -0.5185897627        0.9133460136       -1.0055091229
 N          1.5402462414        2.3847685555       -0.4069831376
 S          1.9420563465        0.7414660658       -0.3172328043
 O          1.6701990360        0.1380593648       -1.5976917340
 O          1.3200915244        0.1318893354        0.8357109811
 C          3.7066736634        0.8513134879       -0.0855373419
 C          4.2426197587        0.6674498537        1.1745279251
 C          5.6137094145        0.7842731598        1.3434078560
 C          6.4198359201        1.0852064040        0.2559862760
 C          5.8672469191        1.2658930325       -1.0035195765
 C          4.4978845148        1.1479003431       -1.1796489062
 H          4.0235344515        1.2679890725       -2.1396048317
 H          6.4973572878        1.4964766739       -1.8472190268
 H          7.4860187651        1.1764214997        0.3904275705
 H          6.0457997595        0.6399883981        2.3204923395
 H          3.5756359109        0.4286735681        1.9876297485
 H          2.1983563952        2.9586626323        0.1028347412
 H          0.6282370792        4.6025131656        0.7989263816
 H         -1.7462735584        5.1081373614        1.2242808684
 H         -3.4938934513        3.4856326647        0.6387513758
 H         -3.1581169399        0.8426733538       -1.6116532248
 C         -4.5048762282        1.2168602284        0.0109318209
 C         -5.4712366433        2.0488305765       -0.7769267956
 C         -5.6684565823        0.5671852426       -0.6739812380
 H         -6.4793466495        0.1932593104       -0.0673458953
 H         -5.4554663484       -0.0407965396       -1.5411856533
 H         -6.1520943214        2.6932150081       -0.2418050644
 H         -5.1310320719        2.4495922066       -1.7197751676
 H         -4.5319247546        1.2809635429        1.0927092297
