  62
        -98.94668221
 C          1.9886058697        1.4498719100       -0.1077608897
 C          1.7252492298        0.1969077598       -0.7092967593
 C          2.8889640399       -0.6806395099       -0.8965747895
 C          4.1088495699       -0.2435721096       -0.5342360600
 C          5.3687491901       -1.0546287294       -0.6177269902
 C          5.6230652906       -1.8199205891        0.6888511998
 C          4.4060751810       -2.5896510092        1.2025236504
 H          4.7127712113       -3.1109603990        2.1119243204
 H          3.6281567509       -1.8775964093        1.4875750805
 C          3.8252864909       -3.6013848395        0.2047046407
 H          4.5624224307       -3.8244435495       -0.5675157195
 H          3.6178214212       -4.5338800295        0.7336965110
 C          2.5166526606       -3.1623957899       -0.4553461090
 H          2.0868366406       -4.0299132901       -0.9634862887
 H          1.8086031107       -2.8442078900        0.3144986212
 C          2.6399493400       -2.0379118901       -1.4916276692
 H          3.4142054298       -2.2898078901       -2.2190082894
 H          1.6849834898       -1.9613673304       -2.0202105489
 H          5.9232725207       -1.1029592888        1.4566199696
 H          6.4523125507       -2.5111792589        0.5278301197
 H          5.2920534000       -1.7510873595       -1.4504069001
 H          6.2038489899       -0.3760650792       -0.7995726606
 O          4.3274152398        0.9839415405        0.0039915497
 C          3.2755221097        1.8517351404        0.2491036299
 O          3.6083929096        2.9301222305        0.7808791996
 H         -1.8867179805        2.0967425891       -0.2536050286
 C         -1.5348043601        1.6578973394        0.6643993514
 C         -0.1969512300        1.7245920597        1.0181022410
 C          0.2057368805        1.1413398601        2.2179511909
 C         -0.7039182692        0.4964874700        3.0323693613
 C         -2.0357296592        0.4111428097        2.6635076918
 C         -2.4499338797        0.9950299593        1.4733980718
 N         -3.8019469599        0.9491578790        1.0852026022
 S         -4.2315100202        0.3305612686       -0.4109177575
 O         -3.6155781307        1.1025594285       -1.4578338579
 O         -5.6785789602        0.3173984883       -0.3943783471
 C         -3.6280682998       -1.3486591213       -0.4070985674
 C         -2.2850693598       -1.5929053910       -0.6120326978
 C         -1.8316352895       -2.9019660009       -0.5484381477
 C         -2.7163863292       -3.9353617310       -0.2843841272
 C         -4.0627193792       -3.6711603913       -0.0806914368
 C         -4.5236082195       -2.3663284914       -0.1373088469
 H         -5.5613843095       -2.1140654416        0.0103918833
 H         -4.7511739790       -4.4756112914        0.1227019235
 H         -2.3545332690       -4.9505535510       -0.2385772871
 H         -0.7822201795       -3.0941918907       -0.7069492680
 H         -1.6032056901       -0.7833500209       -0.8185521481
 H         -4.4132044596        0.5613294290        1.7904499025
 H         -2.7481526589       -0.0987265304        3.2943462221
 H         -0.3745454388        0.0496077303        3.9583330413
 H          1.2485856105        1.2016288103        2.5002295706
 C          0.8423496895        2.4081471398        0.1629013205
 H          1.2695076395        3.2406550700        0.7410411002
 C          0.2950991290        2.9534544194       -1.1393382994
 C         -0.3631840813        4.2987146493       -1.1734756595
 C          0.9888332286        4.1095106295       -1.7916948799
 H          1.0716694982        4.1208663693       -2.8682194499
 H          1.8479523986        4.5226664198       -1.2829187602
 H         -1.2131579215        4.4378518490       -1.8247687693
 H         -0.4238009111        4.8495471095       -0.2468780596
 H         -0.0995596010        2.1798079392       -1.7887361692
 O          0.5779295697       -0.1748852205       -1.0672437389
