  62
        -98.94020951
 C          1.4795155199        1.5973636559       -0.1515104301
 C          2.5424747265        1.2098125113        0.7039560827
 C          3.4611184601        0.1761378288        0.1985090424
 C          3.2586439049       -0.3317949846       -1.0292759270
 C          4.0802346404       -1.3767006868       -1.7335822890
 C          3.4895783004       -2.7835533060       -1.5474434493
 C          3.9000152979       -3.4962993590       -0.2582802405
 H          3.2768982682       -4.3891323261       -0.1698358320
 H          4.9359098313       -3.8296881816       -0.3497901581
 C          3.7691919152       -2.6718300429        1.0253864333
 H          2.8275682871       -2.1207091314        1.0197553786
 H          3.7333619606       -3.3675421581        1.8658583021
 C          4.9398880552       -1.6997105921        1.2376048150
 H          5.3547868361       -1.8460657471        2.2368985465
 H          5.7365748767       -1.9432841968        0.5348594433
 C          4.5863358008       -0.2090998014        1.1190391655
 H          5.4828068698        0.3491985208        0.8292982593
 H          4.2858672130        0.1742840770        2.0990181098
 H          2.4012997872       -2.7006475741       -1.5965080301
 H          3.8015267602       -3.4049634664       -2.3894688290
 H          5.1124208388       -1.3376412979       -1.3976192284
 H          4.0484040942       -1.1288546459       -2.7970663843
 O          2.2090623112        0.0458243407       -1.8082926649
 C          1.2926447172        1.0014423824       -1.3982280933
 O          0.3906673010        1.2128315426       -2.2330750358
 O          2.7226170690        1.7157194080        1.8429426219
 C          0.5419148815        2.6834902337        0.3553067599
 C         -0.7627385197        2.0556944352        0.7793732055
 C         -0.9836826518        1.7258239534        2.1127079137
 C         -2.1450827836        1.0802386423        2.4988464941
 C         -3.0974724690        0.7249437168        1.5599243914
 C         -2.8751396246        1.0347792504        0.2247256787
 C         -1.7305012844        1.7191575956       -0.1554800626
 H         -1.5642412682        1.9385247018       -1.1985622010
 N         -3.7913699233        0.5882287573       -0.7491842293
 S         -4.1199413735       -1.0561178645       -0.6900706968
 O         -4.3238299976       -1.4687325845       -2.0612416411
 O         -5.2337532669       -1.2832832752        0.1980906773
 C         -2.6563828914       -1.8177253211       -0.0015750373
 C         -2.7752639715       -2.6197327448        1.1155640303
 C         -1.6339966549       -3.1742150683        1.6721730638
 C         -0.3942573060       -2.9059684491        1.1136372956
 C         -0.2929620078       -2.0986907142       -0.0081042693
 C         -1.4303585312       -1.5538794203       -0.5800392738
 H         -1.3589112730       -0.9229070599       -1.4526665712
 H          0.6700527684       -1.8740561730       -0.4394358463
 H          0.4989019582       -3.3227388584        1.5522999652
 H         -1.7124069999       -3.8038356129        2.5436465274
 H         -3.7567858610       -2.7855203465        1.5290789250
 H         -3.5242818310        0.8542039199       -1.6869764184
 H         -3.9974575898        0.1980330817        1.8339202030
 H         -2.3049327735        0.8383125857        3.5382067966
 H         -0.2246431043        1.9651667943        2.8433091945
 H          1.0298075929        3.0851998617        1.2529596910
 C          0.3605842347        3.8109174813       -0.6403284648
 C         -0.2105197306        5.1128757979       -0.1669090030
 C          1.2372524865        5.0218584142       -0.5425647972
 H          1.5654075543        5.4947491637       -1.4561465093
 H          1.9725073883        5.0453337754        0.2484193241
 H         -0.8796285710        5.6508438097       -0.8208206894
 H         -0.4580867826        5.1963179167        0.8804875729
 H          0.0958595165        3.4770345194       -1.6354086188
