  62
        -98.94032370
 C          2.2549323997        1.0508559994       -0.3741734001
 C          3.5779272697        1.0898103296        0.1328445998
 C          4.4792489898        0.0337161496       -0.3387031399
 C          4.0301546398       -0.8829145708       -1.2150735996
 C          4.8320760798       -2.0114184609       -1.8046477593
 C          4.8924430800       -3.2612478906       -0.9158184689
 C          5.7729471001       -3.1317818201        0.3277422410
 H          5.8962882202       -4.1359355500        0.7381460213
 H          6.7611063500       -2.7753691401        0.0354829808
 C          5.1966410201       -2.2197757298        1.4199015107
 H          4.1294869501       -2.0664185599        1.2412894708
 H          5.2898895702       -2.7112305995        2.3909696809
 C          5.8809449200       -0.8574424097        1.5346202502
 H          6.9198147600       -0.9942872995        1.8424792702
 H          5.3713448000       -0.2834919395        2.3125954701
 C          5.8591327798       -0.0278082901        0.2438839100
 H          6.1634684497        0.9930419300        0.4866799696
 H          6.5603526298       -0.4401232903       -0.4809748500
 H          3.8749786100       -3.5255762906       -0.6176538287
 H          5.2818918800       -4.0780044508       -1.5279500486
 H          4.3446073197       -2.2801156712       -2.7442764192
 H          5.8436631498       -1.6681490909       -2.0226338595
 O          2.7572992497       -0.8765580610       -1.6933028395
 C          1.8299736297        0.0652989590       -1.2654139697
 O          0.6960505296       -0.0824358012       -1.7604636396
 O          3.9854150997        1.9662137099        0.9411152995
 C          1.2654197696        2.0914693894        0.1243773797
 C          0.2766155897        1.4028348096        1.0329576700
 C          0.7132962599        0.9871951801        2.2894591701
 C         -0.1368718500        0.3168571303        3.1462678204
 C         -1.4378455800        0.0400282001        2.7631870706
 C         -1.8842438301        0.4506785796        1.5130249105
 C         -1.0304064103        1.1352728994        0.6574546302
 H         -1.3935473904        1.4269536891       -0.3130617399
 N         -3.2169460601        0.2112305894        1.1233992407
 S         -3.5125364202       -0.3828697412       -0.4330651091
 O         -2.7530438101       -1.5936858412       -0.6531564088
 O         -3.3475544704        0.6834972485       -1.3859693295
 C         -5.2466972502       -0.7767590913       -0.2784402688
 C         -6.1730587003        0.2388244086       -0.4198505691
 C         -7.5190246802       -0.0563152415       -0.2726434789
 C         -7.9147643201       -1.3546759114        0.0127579516
 C         -6.9740864000       -2.3642026913        0.1500263018
 C         -5.6262605300       -2.0750345112        0.0049686116
 H         -4.8599766300       -2.8286936011        0.0922075518
 H         -7.2843085399       -3.3734555912        0.3680621522
 H         -8.9629995501       -1.5819473215        0.1257257417
 H         -8.2533798203        0.7253500884       -0.3816942191
 H         -5.8182155704        1.2295883686       -0.6506118495
 H         -3.7013896300       -0.3700941504        1.7962208509
 H         -2.1033926899       -0.4895981398        3.4284509208
 H          0.2149834801        0.0010948107        4.1169257904
 H          1.7349225199        1.1931646503        2.5780247699
 H          1.8612009896        2.7835564597        0.7368548794
 C          0.6281464394        2.8698697590       -1.0049213306
 C         -0.0287088706        4.1840433290       -0.7094692309
 C          1.2650055093        4.1457200789       -1.4645842610
 H          1.2551797592        4.3736639286       -2.5198765311
 H          2.1628869693        4.4658925092       -0.9564024612
 H         -0.9315863307        4.4374334788       -1.2438582009
 H         -0.0089599606        4.5305754494        0.3127826690
 H          0.1795162494        2.2379104787       -1.7625675603
