  62
        -98.94132218
 C          1.5759671055        0.6141262699        0.9333002014
 C          2.8199045271        1.1026403814        0.4652097469
 C          3.9051391737        0.1121246563        0.3772405937
 C          3.6676635146       -1.1685535067        0.7113421727
 C          4.6653406980       -2.2846395095        0.6052052899
 C          4.5859651550       -2.9743294052       -0.7640566754
 C          4.5976038605       -2.0054566266       -1.9464792197
 H          4.5676175587       -2.6051585043       -2.8588227021
 H          3.6842905275       -1.4061930463       -1.9260524762
 C          5.8148004070       -1.0711873509       -1.9893632086
 H          6.6099547871       -1.4687750600       -1.3575097537
 H          6.1978049778       -1.0414594203       -3.0116737421
 C          5.5195691393        0.3735468583       -1.5823282629
 H          4.6627632240        0.7466387591       -2.1490858936
 H          6.3834030435        0.9863584375       -1.8537201530
 C          5.2466412404        0.6029785406       -0.0905690377
 H          6.0478131168        0.1580174415        0.5030162779
 H          5.2485278713        1.6828746010        0.0838914579
 H          3.6611630851       -3.5540815262       -0.8066528182
 H          5.4256164673       -3.6664278649       -0.8505760732
 H          4.4462251466       -3.0166925977        1.3843026401
 H          5.6656393614       -1.8870800076        0.7655359702
 O          2.4574283486       -1.6046941872        1.1439648620
 C          1.3885922208       -0.7334955285        1.2593467614
 O          0.3370623543       -1.2673284271        1.6642430381
 O          3.0410800000        2.2974971553        0.1344239878
 C          0.3428265223        1.4906636043        1.0885763672
 C         -0.3478602495        1.6559778256       -0.2438816630
 C          0.1867228453        2.4459198113       -1.2561377169
 C         -0.4758620472        2.5709056581       -2.4634193100
 C         -1.6815625943        1.9266886385       -2.6796081262
 C         -2.2178389562        1.1251674004       -1.6781517567
 C         -1.5428834072        0.9895551906       -0.4734556611
 H         -1.9529885192        0.3570454548        0.2986627307
 N         -3.4191594784        0.4352848207       -1.8802036525
 S         -4.4621703607        0.1088058458       -0.6171435789
 O         -5.7251262644       -0.1736197202       -1.2658434528
 O         -4.4770152670        1.1777024509        0.3543630664
 C         -3.8345470263       -1.3901670522        0.1067649230
 C         -3.6435276494       -1.4645511710        1.4715187120
 C         -3.1708423859       -2.6456599427        2.0197888830
 C         -2.9016380035       -3.7273079760        1.1968167361
 C         -3.1029181853       -3.6383680928       -0.1721112292
 C         -3.5746957378       -2.4598392457       -0.7261580399
 H         -3.7429817293       -2.3535212908       -1.7849989885
 H         -2.8896687164       -4.4827868014       -0.8078381672
 H         -2.5284410205       -4.6436196051        1.6262611115
 H         -3.0064732708       -2.7143155709        3.0830411741
 H         -3.8572256658       -0.5965156936        2.0757536007
 H         -3.9027673244        0.6459793936       -2.7402933720
 H         -2.2025353189        2.0368997958       -3.6186359101
 H         -0.0535529924        3.1855967931       -3.2441912769
 H          1.1307396588        2.9423673497       -1.0937770129
 H         -0.3384925105        0.9281691498        1.7415977636
 C          0.6220697172        2.8309773363        1.7388624821
 C         -0.5328908190        3.6123257464        2.2869213845
 C          0.4524265821        2.9754599304        3.2196631030
 H          1.1395240215        3.6117902290        3.7570484795
 H          0.1382289152        2.1041715702        3.7761535545
 H         -0.5234789827        4.6866732261        2.1842522681
 H         -1.5169108344        3.1734981428        2.2051895455
 H          1.4296524485        3.3813118589        1.2757878061
