  62
        -98.93517023
 C          2.2539380602        1.1063251501       -0.0204570397
 C          3.1874922501        0.5932472398        0.9164008203
 C          4.1599797401       -0.4013087700        0.4299553101
 C          4.1051999203       -0.7848534595       -0.8577402501
 C          4.9769397904       -1.7734028693       -1.5895465903
 C          5.2830225404       -3.0899738095       -0.8587431107
 C          6.7373336503       -3.2065386096       -0.3994991006
 H          6.9867957003       -4.2647943397       -0.2946615309
 H          7.3821011104       -2.7959112894       -1.1793235904
 C          7.0545152801       -2.5236936901        0.9297604997
 H          6.6023901200       -3.0928414204        1.7449073894
 H          8.1374286701       -2.5607773601        1.0696512798
 C          6.5951127401       -1.0686836402        1.0453250301
 H          7.2070484700       -0.5860211804        1.8103417004
 H          6.7746415702       -0.5355529498        0.1124376204
 C          5.1245407100       -0.9181310303        1.4622262300
 H          4.7474042800       -1.8688612605        1.8502744896
 H          5.0485097799       -0.2062314906        2.2899903602
 H          4.6077770203       -3.2095971498       -0.0128044709
 H          5.0818772705       -3.9092580493       -1.5508939611
 H          4.4486002006       -1.9803095789       -2.5230384805
 H          5.9103466205       -1.2760813891       -1.8645016000
 O          3.1934806504       -0.2645848692       -1.7259838100
 C          2.2538523804        0.6785416606       -1.3468491698
 O          1.5032508005        1.0275639409       -2.2817284498
 O          3.2134440699        0.9618661094        2.1212875704
 C          1.2664708101        2.1368059099        0.5006134706
 C         -0.0783374899        1.5179795998        0.8018671402
 C         -0.6012279901        1.5420254593        2.0893962001
 C         -1.8395711901        0.9850804992        2.3569203197
 C         -2.5775001500        0.3885038395        1.3504508094
 C         -2.0643328098        0.3596086700        0.0601384195
 C         -0.8268891798        0.9284681001       -0.2068812901
 H         -0.4314380797        0.9010248705       -1.2116388301
 N         -2.7882282497       -0.2693900196       -0.9665946608
 S         -4.4129720597        0.1011834804       -1.1560720409
 O         -4.7132842495       -0.1981831191       -2.5389199811
 O         -4.7074619097        1.4435038302       -0.7104715005
 C         -5.2412268598       -1.0824551000       -0.1147160514
 C         -4.9870826397       -2.4234709199       -0.3260282019
 C         -5.6279788598       -3.3594666902        0.4697585177
 C         -6.5087779499       -2.9412332306        1.4563301177
 C         -6.7555889700       -1.5913303806        1.6540102282
 C         -6.1174336999       -0.6498646604        0.8613601186
 H         -6.2746238299        0.4102479296        0.9815815889
 H         -7.4405963501       -1.2683548709        2.4213876582
 H         -7.0054880500       -3.6721736808        2.0746531674
 H         -5.4383946398       -4.4100776601        0.3188876274
 H         -4.2977397796       -2.7062955596       -1.1042706719
 H         -2.3093038695       -0.2636702493       -1.8557294708
 H         -3.5403137500       -0.0508146705        1.5537485891
 H         -2.2332307403        1.0110728888        3.3614957297
 H         -0.0243121602        1.9912902191        2.8844160103
 H          1.6927454699        2.4839114296        1.4513830107
 C          1.1071275802        3.3342036703       -0.4164278090
 C          0.6074851901        4.6256253000        0.1553036814
 C          2.0382539101        4.4987072402       -0.2726117285
 H          2.3604057902        5.0130733005       -1.1655114683
 H          2.7964319600        4.4397119000        0.4946591416
 H         -0.0583831999        5.2290071502       -0.4424972885
 H          0.3958120999        4.6553020497        1.2133581513
 H          0.7917592103        3.0718235806       -1.4180670292
