  62
        -98.94518637
 C         -2.2670368025       -0.7214766552       -0.0130203009
 C         -3.2758304194       -0.6718802171        0.9824051822
 C         -4.1536048343        0.5022151207        0.9514205978
 C         -3.9369942698        1.4718981418        0.0443346017
 C         -4.7262534895        2.7451903335       -0.0957121493
 C         -6.0079606022        2.5950071180       -0.9268865530
 C         -7.1435559305        1.8355469554       -0.2396914539
 H         -7.3274381503        2.2712829928        0.7427960495
 H         -8.0421548011        1.9930435529       -0.8394748772
 C         -6.9026060387        0.3260266131       -0.0991153333
 H         -7.8025204490       -0.2155301847       -0.3990808036
 H         -6.1038029829        0.0199610423       -0.7785812698
 C         -6.5499830984       -0.1309267049        1.3164601205
 H         -7.3959541558        0.0532597914        1.9822321192
 H         -6.3678800717       -1.2082628737        1.2927834091
 C         -5.3069035045        0.5468462384        1.9080114371
 H         -5.5341596949        1.5767696365        2.1821284614
 H         -5.0132640221        0.0010097858        2.8078621393
 H         -6.3624974850        3.6010365381       -1.1628422101
 H         -5.7567971273        2.1021427322       -1.8690007414
 H         -4.9747833105        3.1332969548        0.8924597007
 H         -4.0720398868        3.4623739464       -0.5963820387
 O         -2.9308865788        1.4086128990       -0.8674000314
 C         -2.0865129872        0.3088465932       -0.9357615883
 O         -1.2415983179        0.3793314536       -1.8500152274
 O         -3.4340412093       -1.5674960940        1.8534040341
 C         -1.3421522624       -1.9278552274       -0.0305693951
 C          0.0370126946       -1.4725274543        0.3758166689
 C          0.3272128503       -1.3084239671        1.7277233242
 C          1.5595164664       -0.8312087810        2.1316053053
 C          2.5251684156       -0.4973793162        1.1973155007
 C          2.2379140473       -0.6381704329       -0.1530128936
 C          1.0073624609       -1.1407985681       -0.5562054847
 H          0.7944966764       -1.2340857993       -1.6092447762
 N          3.2053259507       -0.2907325343       -1.1114307512
 S          4.0212845797        1.1647578488       -0.9305479887
 O          3.2303129684        2.1457348095       -0.2237712746
 O          4.4539371717        1.5238560388       -2.2637515666
 C          5.4514742813        0.7201752207        0.0353781924
 C          5.7486203218        1.4174481811        1.1899010374
 C          6.8715239932        1.0589615689        1.9197631761
 C          7.6739168947        0.0159020454        1.4836510608
 C          7.3636882280       -0.6724691626        0.3201349169
 C          6.2432219659       -0.3185376323       -0.4142512084
 H          5.9687644911       -0.8254977512       -1.3241331643
 H          7.9900478802       -1.4830698692       -0.0159122814
 H          8.5462150583       -0.2620300443        2.0539444883
 H          7.1140941288        1.5937624900        2.8240405503
 H          5.0921512321        2.2176800987        1.4934434445
 H          2.8804887520       -0.3978427661       -2.0619786678
 H          3.4841641688       -0.1135286717        1.5043980296
 H          1.7720215456       -0.7139844984        3.1834003908
 H         -0.4342814447       -1.5480184051        2.4568043897
 H         -1.7250449172       -2.5956727319        0.7528686183
 C         -1.3830837277       -2.6587116082       -1.3561413705
 C         -0.8115113777       -4.0410918498       -1.4483426091
 C         -2.2944799455       -3.8372387160       -1.5140492822
 H         -2.7943835463       -3.9776168457       -2.4608152538
 H         -2.8893475998       -4.1262947119       -0.6600816118
 H         -0.2909478838       -4.3252524565       -2.3500677659
 H         -0.3976496160       -4.4678018738       -0.5474172562
 H         -1.2716353771       -2.0041611531       -2.2122471164
