  62
        -98.94595818
 C         -1.0550107716       -1.2782564898       -0.0997279020
 C         -1.7573974418       -0.6201701872        0.9439853658
 C         -2.5818523349        0.5287668334        0.5561816564
 C         -2.6027359361        0.9262139273       -0.7286637773
 C         -3.3490588949        2.1120373318       -1.2773908777
 C         -4.8189381307        1.8247217263       -1.6129149239
 C         -5.7393706256        1.6542339469       -0.4036013017
 H         -5.6212133659        2.5081496186        0.2641267216
 H         -6.7649924255        1.6725922394       -0.7774095869
 C         -5.5214505981        0.3510179093        0.3779328945
 H         -4.9568369083       -0.3524203882       -0.2385624646
 H         -6.4876538662       -0.1131179574        0.5880566377
 C         -4.8023830044        0.5261242205        1.7154745132
 H         -4.6708584025       -0.4614179008        2.1646508141
 H         -5.4222564201        1.1224756873        2.3884344010
 C         -3.4211500217        1.1864669883        1.6107382549
 H         -3.5304918425        2.2512562674        1.4036542281
 H         -2.9115741336        1.0606946850        2.5693670284
 H         -4.8655456789        0.9290121738       -2.2368684298
 H         -5.1868611350        2.6631930244       -2.2088673112
 H         -2.8352866750        2.4034714594       -2.1964986047
 H         -3.2911504943        2.9408345961       -0.5708671699
 O         -1.9038579485        0.2832256024       -1.6999599713
 C         -1.1354290124       -0.8450276383       -1.4244677300
 O         -0.6025062028       -1.3348740119       -2.4386219788
 O         -1.6981235943       -0.9816568716        2.1489368339
 C         -0.2082150614       -2.4661710887        0.3170225101
 C          1.2166364685       -2.0600404798        0.6165637637
 C          1.8492314057       -2.5192698428        1.7665857888
 C          3.1599282065       -2.1722880575        2.0378567790
 C          3.8570317022       -1.3431599970        1.1780901009
 C          3.2327286444       -0.8732506811        0.0285816170
 C          1.9242733053       -1.2416476673       -0.2522176186
 H          1.4637466628       -0.8838359255       -1.1600556223
 N          3.9114274622       -0.0136578563       -0.8541027890
 S          3.1336755994        1.3856717821       -1.3442525619
 O          2.1655437406        1.1009906893       -2.3701575649
 O          4.2104919669        2.2783549045       -1.7193795267
 C          2.3337114730        1.9885374671        0.1311322285
 C          3.1238065957        2.5314609866        1.1260751166
 C          2.5251683765        2.9563855368        2.3003118147
 C          1.1537193246        2.8268046299        2.4611477868
 C          0.3741076652        2.2839865470        1.4520770224
 C          0.9684706842        1.8578059349        0.2748650996
 H          0.3943987736        1.4276989351       -0.5310906439
 H         -0.6916651045        2.1747461290        1.5747815405
 H          0.6853154548        3.1510611249        3.3768670357
 H          3.1264767341        3.3836228211        3.0863781599
 H          4.1840530082        2.6268216600        0.9569147839
 H          4.8613776815        0.1917092648       -0.5774236497
 H          4.8766076205       -1.0603827317        1.3906545905
 H          3.6395496110       -2.5391512469        2.9320704669
 H          1.3017167705       -3.1451622386        2.4549797217
 H         -0.6526662256       -2.8201503550        1.2579286337
 C         -0.2122006330       -3.6154411436       -0.6724381525
 C          0.0358921615       -5.0083691275       -0.1796629034
 C         -1.3328129447       -4.6092053844       -0.6417451426
 H         -1.7005388012       -4.9970020936       -1.5797649809
 H         -2.1024103244       -4.4702761249        0.1037512471
 H          0.6138439786       -5.6758115140       -0.8000608105
 H          0.1897182053       -5.1480530120        0.8793184977
 H          0.1858490085       -3.3452635841       -1.6421138383
