  62
        -98.94146986
 C         -1.6348648300       -1.1811545698        0.1692857512
 C         -1.6682061695        0.1702030204        0.5990023306
 C         -2.7539454591        1.0022288106        0.0668710901
 C         -3.6335525792        0.4561003106       -0.7924689298
 C         -4.8172830589        1.1683760308       -1.3786694502
 C         -6.0666152491        0.9830883216       -0.5063476102
 C         -5.8324806291        1.2737308622        0.9760494796
 H         -6.7879593592        1.1428890728        1.4886357296
 H         -5.1459570994        0.5271111921        1.3820046600
 C         -5.2833247086        2.6771585521        1.2681637791
 H         -5.8368011685        3.1020395427        2.1082119288
 H         -5.4508538082        3.3271377418        0.4086516188
 C         -3.8019820086        2.7112969417        1.6486409892
 H         -3.6124601690        1.9910035320        2.4486887696
 H         -3.5754860783        3.7049596218        2.0446135988
 C         -2.8117621386        2.4375243008        0.5095069894
 H         -3.0348190883        3.0928284705       -0.3352706909
 H         -1.8109684685        2.6779879906        0.8810988994
 H         -6.8535802888        1.6366750318       -0.8869947206
 H         -6.4070496494       -0.0504528783       -0.6030090698
 H         -4.5850508585        2.2269450306       -1.4778247906
 H         -5.0122663089        0.7531354704       -2.3687833400
 O         -3.5638550597       -0.8361311696       -1.1945115592
 C         -2.5659502601       -1.6906860498       -0.7371589987
 O         -2.6371432705       -2.8376149700       -1.2123675782
 O         -0.8226996994        0.6571044805        1.3978410304
 C         -0.5028526903       -2.0323318500        0.7179730917
 C          0.7026282898       -1.9001366108       -0.1772823283
 C          0.6258947198       -2.1976600414       -1.5354748981
 C          1.7345119300       -2.0473224722       -2.3471836081
 C          2.9292989401       -1.5764680324       -1.8291699082
 C          3.0126222001       -1.2656658519       -0.4777983883
 C          1.9043254899       -1.4424730311        0.3408211917
 H          1.9846216199       -1.1928662906        1.3879685616
 N          4.2095648702       -0.7802352721        0.0782272616
 S          4.1674692807        0.6212803184        0.9984191110
 O          5.5545631008        1.0156447079        1.1146828009
 O          3.4725262604        0.3758362192        2.2344455110
 C          3.2943239212        1.7917934282       -0.0254129796
 C          4.0385924416        2.5400284475       -0.9182767399
 C          3.3863971120        3.4020148374       -1.7836340803
 C          2.0026345720        3.4914419180       -1.7522608205
 C          1.2716992617        2.7325621686       -0.8523912003
 C          1.9174953312        1.8736539388        0.0242835702
 H          1.3565435909        1.2857726493        0.7342498104
 H          0.1948458017        2.7932674091       -0.8212781204
 H          1.4903081124        4.1566404479       -2.4294120609
 H          3.9548615823        3.9970058669       -2.4801586806
 H          5.1122296316        2.4425737771       -0.9043492997
 H          4.9757887703       -0.7351902027       -0.5790673383
 H          3.7910087802       -1.4495957530       -2.4667209681
 H          1.6656952000       -2.2884436826       -3.3971747480
 H         -0.3115356703       -2.5474955512       -1.9416393681
 H         -0.2427031403       -1.5677819596        1.6830721515
 C         -0.8964047909       -3.4739878897        1.0039098023
 C         -0.3185241113       -4.6527655302        0.2852602829
 C          0.0753921787       -4.3783757398        1.7034228528
 H         -0.2894857217       -5.0304872893        2.4824937630
 H          1.0685727588       -3.9918749901        1.8804758827
 H         -0.9782720616       -5.4816753801        0.0792422632
 H          0.4124144488       -4.4768263409       -0.4877516471
 H         -1.9367449210       -3.5603272392        1.2997096122
