  62
        -98.94803287
 C         -1.2582204948       -1.0657986866        0.0242812761
 C         -1.6151231800        0.0260197315        0.8501690837
 C         -2.6278304433        0.9405529462        0.3092495842
 C         -3.1011876484        0.7340650875       -0.9331750885
 C         -4.1616277689        1.5647578505       -1.5948233805
 C         -5.5628849377        0.9988785935       -1.3245954041
 C         -5.8333634546        0.6978026484        0.1494744795
 H         -6.8601191280        0.3333342608        0.2236666080
 H         -5.1785651052       -0.1147553861        0.4720595430
 C         -5.6479868970        1.8994658726        1.0864582456
 H         -5.6630576122        2.8248991743        0.5096155577
 H         -6.4901513377        1.9359233587        1.7806399835
 C         -4.3747933119        1.8521682582        1.9330201662
 H         -4.4497674402        2.6241325577        2.7034775626
 H         -4.3093701633        0.8868178466        2.4410734137
 C         -3.0610343293        2.0885627373        1.1769317961
 H         -2.2675765426        2.2188224457        1.9191486779
 H         -3.1302726674        3.0077908509        0.5908565398
 H         -6.3002129390        1.7139862803       -1.6938917815
 H         -5.6753629772        0.0712620270       -1.8905358706
 H         -4.0927159372        2.5881092255       -1.2302208832
 H         -3.9772084817        1.5616143721       -2.6706369790
 O         -2.6940378292       -0.2937441808       -1.7207234077
 C         -1.7632826150       -1.2176474635       -1.2667113825
 O         -1.4763371304       -2.1050696569       -2.0926460697
 O         -1.1045977706        0.2281121456        1.9858913786
 C         -0.2206730015       -2.0536726290        0.5216117001
 C          1.0286568321       -1.9906389657       -0.3240589963
 C          1.8104284558       -3.1027791643       -0.6124145215
 C          2.9623202758       -2.9702424719       -1.3685515688
 C          3.3739179778       -1.7330578007       -1.8303532017
 C          2.6016255161       -0.6136356283       -1.5422236055
 C          1.4406900402       -0.7539020811       -0.7998390126
 H          0.8349738682        0.1185986459       -0.6113703795
 N          2.9739896510        0.6636409293       -1.9863052106
 S          2.6604047097        1.9981081040       -1.0291273033
 O          1.2592797042        2.3356990046       -1.0729419283
 O          3.5667743796        3.0103222782       -1.5295024505
 C          3.1581027435        1.5087564780        0.6127883107
 C          2.2243928891        1.2626142601        1.5977332710
 C          2.6619522049        0.8338818736        2.8416784741
 C          4.0158346520        0.6605416099        3.0796447973
 C          4.9434085718        0.9212061435        2.0818018632
 C          4.5124832466        1.3459925731        0.8364918723
 H          5.2020838542        1.5703424888        0.0390121606
 H          5.9968653723        0.7915699400        2.2702402896
 H          4.3487798102        0.3234773280        4.0485970091
 H          1.9314471560        0.6331150216        3.6092993193
 H          1.1734507571        1.3972605207        1.3942979277
 H          3.8786130519        0.7178317326       -2.4301832768
 H          4.2743756358       -1.6326839186       -2.4163659017
 H          3.5541506150       -3.8438730516       -1.5953806357
 H          1.5129049096       -4.0741462733       -0.2528772516
 H          0.0470174614       -1.7092141220        1.5328744019
 C         -0.8091523445       -3.4460405779        0.6218518288
 C         -0.3514968138       -4.3901103862        1.6922909850
 C         -1.7113311987       -3.7668699807        1.7748579542
 H         -2.5782689220       -4.3848195427        1.5953953981
 H         -1.8748910117       -2.9888064439        2.5064064786
 H         -0.2864041201       -5.4418990065        1.4576401879
 H          0.4054390545       -4.0411470503        2.3782083262
 H         -1.0716959185       -3.8550430288       -0.3471835161
