  62
        -98.93165983
 C          1.1000217260        1.3997619392        0.2642484014
 C          1.6498428939        0.4034886114        1.1073824544
 C          2.6125925947       -0.5338106728        0.5045097116
 C          2.8835634774       -0.4370577111       -0.8102525511
 C          3.7922628216       -1.2491948318       -1.7102239990
 C          4.7568517469       -2.2746488584       -1.1212419778
 C          5.9317699748       -1.6690122312       -0.3522367748
 H          6.4772896372       -2.4781959279        0.1378633123
 H          6.6089882947       -1.2005523486       -1.0709195148
 C          5.5669150257       -0.6123552975        0.6876765628
 H          6.4972857066       -0.2321776344        1.1183464002
 H          5.0720794143        0.2291199726        0.1986596170
 C          4.6905129721       -1.1028500132        1.8378745656
 H          4.6190229997       -0.2921671422        2.5682834486
 H          5.1699519405       -1.9519789678        2.3291114921
 C          3.2592950793       -1.5066895452        1.4485038301
 H          2.6483382527       -1.5022910694        2.3557041989
 H          3.2346898507       -2.5156074561        1.0451698944
 H          5.1703974041       -2.8361114747       -1.9633429633
 H          4.2202118329       -2.9879887031       -0.5025900410
 H          3.1306913623       -1.7585076847       -2.4196072129
 H          4.3615351389       -0.5213645210       -2.2975181927
 O          2.2653284966        0.4860837322       -1.6004694547
 C          1.3710390999        1.4233534376       -1.1036973820
 O          0.9097668174        2.1791608156       -1.9743892207
 O          1.3479471553        0.2984751333        2.3275158546
 C          0.1356115758        2.3942066547        0.8997211539
 C         -1.2375164730        2.1506502653        0.3282641992
 C         -1.7716074576        2.7570730202       -0.8026154992
 C         -3.0159235154        2.3828589082       -1.2836069480
 C         -3.7551646848        1.3924060790       -0.6634790534
 C         -3.2253481073        0.7667051735        0.4567157866
 C         -1.9870478420        1.1511789359        0.9439934770
 H         -1.5776198564        0.6476607732        1.8108406816
 N         -3.9492424944       -0.2822705766        1.0727475647
 S         -4.0192202032       -1.6975315205        0.1799853353
 O         -4.7337100052       -1.4370149707       -1.0425849871
 O         -4.5903318282       -2.6906559399        1.0600925252
 C         -2.3196720644       -2.1070312843       -0.1797387800
 C         -1.6845971596       -1.4744305456       -1.2299581455
 C         -0.3527100310       -1.7639718258       -1.4777186652
 C          0.3173388155       -2.6750447633       -0.6762189774
 C         -0.3315711701       -3.2943573865        0.3803311520
 C         -1.6615859364       -3.0047580491        0.6367267558
 H         -2.2057042091       -3.4686795654        1.4438834234
 H          0.1961100618       -3.9973508869        1.0045006406
 H          1.3519209316       -2.9019000722       -0.8774856744
 H          0.1570123258       -1.2681393550       -2.2894227466
 H         -2.2344033668       -0.7758129503       -1.8398799522
 H         -3.6082329322       -0.5012662670        1.9992459322
 H         -4.7126061146        1.0751121622       -1.0430972206
 H         -3.4105456945        2.8684127564       -2.1635116603
 H         -1.2081269837        3.4988230030       -1.3391968159
 H          0.0896847669        2.0694600203        1.9509167389
 C          0.6952965612        3.8087826416        0.9560008382
 C          0.8775992618        4.7456932220       -0.1987902506
 C         -0.1545563251        5.0393200487        0.8472645332
 H          0.0314593814        5.8511944848        1.5345931411
 H         -1.1945142052        4.9110668421        0.5910773510
 H          1.7773002480        5.3452509459       -0.2077643236
 H          0.5773791748        4.4232101244       -1.1811405047
 H          1.4898759428        3.8511531560        1.6976631949
