  62
        -98.94593647
 C         -2.1195289177       -1.4914678051       -0.0030763763
 C         -1.8351577651       -0.3703946320       -0.8198014020
 C         -2.8937134025        0.6475919819       -0.8929654939
 C         -4.0487512137        0.4493934508       -0.2321402729
 C         -5.1846029768        1.4288067218       -0.1780258372
 C         -5.0486713852        2.3690872323        1.0280074957
 C         -3.6635163739        3.0011662691        1.1666753986
 H         -3.6965254297        3.6670523562        2.0317274781
 H         -2.9348839398        2.2188316310        1.3916771368
 C         -3.1975766373        3.7872283050       -0.0666651589
 H         -4.0541869010        4.0276469510       -0.6974917395
 H         -2.7650673072        4.7330838101        0.2658148403
 C         -2.1313221134        3.0785154837       -0.9041442045
 H         -1.3174123260        2.7466609858       -0.2547917530
 H         -1.7194967547        3.8041775290       -1.6105378976
 C         -2.6171522273        1.8726120941       -1.7180996360
 H         -3.4952164974        2.1509596395       -2.3043152990
 H         -1.8185138933        1.5905650475       -2.4102863139
 H         -5.8023613514        3.1538389983        0.9401322015
 H         -5.2573023393        1.7988736655        1.9363289533
 H         -5.2065151702        2.0050054190       -1.1009072248
 H         -6.1174414329        0.8695586992       -0.0878767692
 O         -4.2970687749       -0.6584139489        0.5129113347
 C         -3.3346684185       -1.6428774224        0.6646491594
 O         -3.6745995598       -2.5875502876        1.4056610799
 H          1.4821984931       -2.4903275141       -0.8707780780
 C          1.3957827311       -1.9847436359        0.0778215798
 C          0.1805180773       -1.9559863714        0.7404634308
 C          0.1033207782       -1.2872844394        1.9600937477
 C          1.2130765892       -0.6659707132        2.4989436687
 C          2.4244511803       -0.6877556259        1.8287802152
 C          2.5095309196       -1.3458215482        0.6099551923
 N          3.7277286353       -1.3564107750       -0.0876421609
 S          4.6283360467        0.0518245269       -0.1342312251
 O          5.3933179395       -0.0336844215       -1.3590849987
 O          5.4041586754        0.1676598705        1.0766039311
 C          3.4563640980        1.3952581469       -0.2238564580
 C          3.5624610831        2.4443218381        0.6670261984
 C          2.6553793222        3.4883653737        0.5854879122
 C          1.6595706296        3.4633236417       -0.3786217086
 C          1.5666869787        2.4027458348       -1.2664107087
 C          2.4734213112        1.3587164410       -1.1924059608
 H          2.4085758368        0.5236245565       -1.8705387086
 H          0.7836103655        2.3687281114       -2.0061463066
 H          0.9496048605        4.2733221586       -0.4387995341
 H          2.7247689124        4.3144759910        1.2749039687
 H          4.3474916123        2.4193088464        1.4055648734
 H          3.6780503656       -1.7903049439       -0.9976367871
 H          3.3009439619       -0.2086366041        2.2339946622
 H          1.1366379115       -0.1549963621        3.4467592962
 H         -0.8466815919       -1.2587494354        2.4770169947
 C         -1.0745169613       -2.5787807257        0.1800081163
 H         -1.4806618733       -3.2699648693        0.9318237238
 C         -0.8675019940       -3.3356714756       -1.1147808019
 C         -0.3131468376       -4.7276958584       -1.0895345945
 C         -1.7565084327       -4.5010463947       -1.4231455521
 H         -2.0802978132       -4.6470421273       -2.4428261344
 H         -2.5024637189       -4.7650360596       -0.6876417633
 H          0.3526605855       -5.0349113205       -1.8820931622
 H         -0.0761731221       -5.1533358597       -0.1261823436
 H         -0.5938220566       -2.6894605009       -1.9408637780
 O         -0.7595057270       -0.2241406692       -1.4551214137
