  62
        -98.93912857
 C         -2.2588096122        0.0659869675       -0.2609822732
 C         -3.2901752595        0.7249214692        0.4528556347
 C         -4.4677304531       -0.0928080244        0.7760881519
 C         -4.5029434351       -1.3926439251        0.4349995651
 C         -5.6209611079       -2.3575699474        0.7224347252
 C         -6.7638149928       -2.3110288994       -0.3012287435
 C         -7.6584758858       -1.0733149725       -0.2223110434
 H         -8.5364302600       -1.2732800883       -0.8398082927
 H         -8.0048082155       -0.9418283673        0.8031970478
 C         -6.9942449873        0.2205351860       -0.7134684829
 H         -6.1109014999       -0.0259684900       -1.3072301234
 H         -7.6821794785        0.7559297514       -1.3717366190
 C         -6.5879975243        1.1864179029        0.3995922450
 H         -7.4803259751        1.5451463575        0.9173190214
 H         -6.0942495516        2.0474766717       -0.0577275174
 C         -5.6296723086        0.5866029749        1.4366274968
 H         -6.1620141111       -0.1117298747        2.0816979631
 H         -5.2342423516        1.3999533152        2.0496086254
 H         -7.3855246037       -3.1938320439       -0.1350857450
 H         -6.3372506524       -2.3892460571       -1.3039765991
 H         -5.1807049237       -3.3568122552        0.7018861207
 H         -6.0173130212       -2.1725838240        1.7211800192
 O         -3.4772418563       -2.0006573201       -0.2190509488
 C         -2.3546870227       -1.2876923983       -0.6004479357
 O         -1.5166350870       -1.9640089693       -1.2324444962
 O         -3.2566591961        1.9301679963        0.8161308881
 C         -0.9841769789        0.7563548097       -0.7184107043
 C          0.0342806116        0.8648287112        0.3916526769
 C         -0.2167710856        1.6032312155        1.5436745184
 C          0.7508438404        1.7172225549        2.5246469279
 C          1.9895325916        1.1204548866        2.3686095316
 C          2.2468222163        0.3743396549        1.2246858345
 C          1.2661841812        0.2431421562        0.2513274427
 H          1.4771286566       -0.3504699200       -0.6268703816
 N          3.4858167196       -0.2597490349        1.0419428662
 S          4.1131416019       -0.3421466929       -0.5235245797
 O          3.8678697081        0.9005334653       -1.2198025613
 O          3.6219500545       -1.5386567917       -1.1603161954
 C          5.8528299167       -0.5163472731       -0.1717279443
 C          6.6488005263        0.6133908114       -0.1407691425
 C          7.9945486421        0.4773617461        0.1615696604
 C          8.5181864175       -0.7786059248        0.4293353750
 C          7.7071088561       -1.9032272794        0.3935964924
 C          6.3607271871       -1.7745808298        0.0910571959
 H          5.6942725280       -2.6200378478        0.0418768495
 H          8.1182418582       -2.8784360988        0.5988316090
 H          9.5657917429       -0.8822303817        0.6638641103
 H          8.6281849298        1.3492252508        0.1862354177
 H          6.1999386040        1.5675693884       -0.3655968916
 H          4.1815903783        0.0276842490        1.7164760832
 H          2.7491467067        1.2245105489        3.1285634479
 H          0.5433832058        2.2907819840        3.4154834554
 H         -1.1772182742        2.0806276396        1.6611351802
 H         -0.5544387196        0.1029720396       -1.4909020192
 C         -1.2266823969        2.1229353683       -1.3328811360
 C         -0.1436689928        2.7355267371       -2.1670589170
 C         -1.4024691238        2.2428196292       -2.8148703854
 H         -2.1060811451        2.9690656013       -3.1935182106
 H         -1.3531052807        1.3354746077       -3.3999970062
 H          0.0162475242        3.8008260622       -2.1007285887
 H          0.7638280203        2.1652852053       -2.3072856163
 H         -1.8126036102        2.7795874972       -0.7036739062
