  62
        -98.94609315
 C          1.4154470602        0.8506902791       -0.0823634396
 C          2.4957250201        0.8394942089        0.8378077306
 C          3.4473093900       -0.2716027912        0.7237862007
 C          3.2358287699       -1.2200174511       -0.2065655794
 C          4.1454573198       -2.3848740212       -0.4678107793
 C          5.1940372900       -2.0430259114       -1.5357356592
 C          5.9183440102       -0.7197970515       -1.2877656490
 H          6.6520291703       -0.5959751015       -2.0871542889
 H          5.2019903903        0.0998260386       -1.3783916791
 C          6.6231554700       -0.6276566816        0.0728142611
 H          6.7505309198       -1.6263108516        0.4921418611
 H          7.6205553701       -0.2091375917       -0.0771961088
 C          5.9151442000        0.2636312785        1.0949399610
 H          6.5986426299        0.4306384984        1.9316615611
 H          5.7022932902        1.2373837585        0.6468349010
 C          4.6096613298       -0.2940516313        1.6762360308
 H          4.3198487598        0.3439288787        2.5163942308
 H          4.7768366396       -1.3046009714        2.0551953308
 H          5.9208399799       -2.8562956415       -1.5783167691
 H          4.6931485901       -1.9835855913       -2.5047751092
 H          3.5382424498       -3.2216424812       -0.8181759994
 H          4.6358633097       -2.6704820213        0.4610123208
 O          2.1814007501       -1.1931040410       -1.0568136695
 C          1.2452363702       -0.1670009709       -1.0225503296
 O          0.3470054403       -0.2925045207       -1.8769640797
 O          2.6584927401        1.7323300989        1.7138096406
 C          0.4415618003        2.0061967492        0.0443210903
 C         -0.7154796598        1.6903918894        0.9663681602
 C         -1.2939899898        2.6997203294        1.7295380001
 C         -2.3644137299        2.4288236095        2.5610753100
 C         -2.8859952501        1.1500087196        2.6418344299
 C         -2.3134332301        0.1325483495        1.8875897199
 C         -1.2350460200        0.4088724794        1.0575071401
 H         -0.7930520600       -0.3966926106        0.4934740901
 N         -2.8048166703       -1.1783951004        1.9679533098
 S         -2.8984775403       -2.1343970604        0.5965919698
 O         -3.8281985005       -3.1813056502        0.9682466797
 O         -1.5850722703       -2.5739233005        0.2013531800
 C         -3.6515534000       -1.0791742602       -0.6274094303
 C         -2.9002176698       -0.4979625003       -1.6272179102
 C         -3.5293491996        0.3652399098       -2.5128210902
 C         -4.8829135695        0.6313830100       -2.3850803704
 C         -5.6243414997        0.0328349700       -1.3771002905
 C         -5.0040646600       -0.8281249101       -0.4881204404
 H         -5.5454265601       -1.3250214800        0.3005831095
 H         -6.6786701697        0.2362318902       -1.2817417906
 H         -5.3620819194        1.3063100500       -3.0766665404
 H         -2.9485054094        0.8249667997       -3.2969384901
 H         -1.8459981998       -0.7142378204       -1.7077340100
 H         -3.6263813704       -1.2850592103        2.5450000397
 H         -3.7197172202        0.9345805397        3.2921646698
 H         -2.7991918099        3.2198065096        3.1525164999
 H         -0.8885537797        3.6985632194        1.6797464002
 H          1.0173696204        2.8185008891        0.5108616904
 C         -0.0982374394        2.5036400893       -1.2837907197
 C         -0.4402136892        3.9516099794       -1.4582805698
 C          0.7592421508        3.3763801292       -2.1485574196
 H          0.7287941509        3.2288790092       -3.2174060296
 H          1.7381118108        3.6398629891       -1.7744076595
 H         -1.3035730091        4.2059014195       -2.0531492399
 H         -0.2671078992        4.6172643293       -0.6268614397
 H         -0.7238034295        1.7760982794       -1.7837075998
