  62
        -98.94529067
 C         -2.4845572204       -1.1660244292       -0.0317998405
 C         -3.1756629101       -0.3322036292        0.8785742298
 C         -3.7414304097        0.9026777111        0.3204370001
 C         -3.5668698897        1.1732786214       -0.9862452499
 C         -4.0238222793        2.4289742717       -1.6694724895
 C         -2.9257888290        3.5018124713       -1.6437839793
 C         -2.3144691888        3.7285913508       -0.2607704093
 H         -1.7667864091        2.8305070106        0.0377021404
 H         -1.5756757185        4.5275442406       -0.3582031092
 C         -3.3298172286        4.0969592909        0.8306098008
 H         -4.2563590285        4.4426011313        0.3710197210
 H         -2.9273152883        4.9269012906        1.4151764110
 C         -3.6426654889        2.9684862108        1.8150021206
 H         -2.7084655890        2.5581762903        2.2078469704
 H         -4.1915716387        3.3957198407        2.6583198407
 C         -4.4833270893        1.8114580212        1.2601180104
 H         -4.7856083795        1.1865208111        2.1055661802
 H         -5.3830143792        2.2060831916        0.7843967805
 H         -3.3475910487        4.4378850716       -2.0142406191
 H         -2.1249287991        3.1965503712       -2.3218485695
 H         -4.2595804095        2.1895686420       -2.7076151696
 H         -4.9210029692        2.7999972219       -1.1779525194
 O         -2.8998251100        0.3472831914       -1.8315338301
 C         -2.3225861904       -0.8297222989       -1.3764322504
 O         -1.7150907307       -1.4742644589       -2.2510486906
 H         -0.3551472801       -0.4265130202        1.3901895195
 C          0.2649655497       -1.1423326503        0.8630163693
 C         -0.3266815108       -2.2828667700        0.3318751291
 C          0.4785942889       -3.1925942401       -0.3385442412
 C          1.8336991690       -2.9490897505       -0.4885555313
 C          2.4132856694       -1.8043846608        0.0265637690
 C          1.6179542297       -0.8929549607        0.7095348493
 N          2.1992847802        0.2803049989        1.2365825495
 S          2.8751800904        1.3307482090        0.1061411097
 O          2.8388878309        2.6355454989        0.7312360200
 O          2.2246812403        1.2152313195       -1.1793510203
 C          4.5652043002        0.7841233585       -0.0037964406
 C          5.3338905303        0.8193236679        1.1433659294
 C          6.6499495802        0.3906140275        1.0795395492
 C          7.1720088800       -0.0614886324       -0.1234769310
 C          6.3879944899       -0.0870061218       -1.2667995809
 C          5.0699963600        0.3395058086       -1.2097442407
 H          4.4193134799        0.3314201390       -2.0697718907
 H          6.7953457797       -0.4385322018       -2.2010663010
 H          8.1963306798       -0.3958600427       -0.1706087011
 H          7.2627890303        0.4090610071        1.9662315591
 H          4.8891402905        1.1822236879        2.0547644495
 H          1.5662068404        0.7966880190        1.8319333597
 H          3.4659359894       -1.6085031612       -0.0970972811
 H          2.4463971987       -3.6606834406       -1.0206229215
 H          0.0434035386       -4.0841857599       -0.7585777414
 C         -1.8204782708       -2.4296085295        0.4890359091
 H         -2.0520432007       -2.4593336997        1.5640443792
 C         -2.3926392413       -3.6657685892       -0.1685368811
 C         -2.3282913216       -4.9863604094        0.5373860386
 C         -3.6395249214       -4.2753719589        0.3960800688
 H         -4.3734676216       -4.6731470685       -0.2884708812
 H         -4.0678405412       -3.8091300590        1.2714020790
 H         -2.1638848220       -5.8772003893       -0.0494493917
 H         -1.8667734416       -5.0085260998        1.5129086685
 H         -2.2867117913       -3.6524172090       -1.2471139611
 O         -3.3030492001       -0.6020322894        2.1043788297
