  62
        -98.93610336
 C          2.6823453214        0.4276398377       -0.1323779054
 C          2.0252790952        1.1186740782        0.9154739588
 C          1.3246019862        2.3567084102        0.5319930875
 C          1.3477700795        2.7658420605       -0.7478942629
 C          0.5570142005        3.9102433602       -1.3144375801
 C         -0.9044287672        3.4624023659       -1.5249734959
 C         -1.9204079100        4.1939383191       -0.6474104771
 H         -2.0778744285        5.1986582602       -1.0465406054
 H         -2.8653283325        3.6520821689       -0.7252336773
 C         -1.5474886487        4.3305110174        0.8318493922
 H         -0.8441076862        5.1553106939        0.9582864502
 H         -2.4578519747        4.6114589554        1.3657583437
 C         -0.9562871371        3.0800455815        1.4959588921
 H         -1.2679834272        2.1718781115        0.9766898185
 H         -1.3553302552        3.0085032398        2.5104167715
 C          0.5801856399        3.0852225176        1.6159863658
 H          0.9422859440        4.1152049644        1.6845258664
 H          0.8562957955        2.5721574612        2.5419823912
 H         -1.1830542452        3.6119511948       -2.5696341313
 H         -0.9650272096        2.3879496088       -1.3335529454
 H          0.6060386642        4.7649500200       -0.6435486215
 H          1.0129480346        4.1833986754       -2.2664693984
 O          2.0420884170        2.1118804644       -1.7148347183
 C          2.6852279737        0.9195495022       -1.4403518050
 O          3.2383689383        0.3991550078       -2.4319355548
 O          2.0025779432        0.7407504762        2.1177477578
 C          3.2956365068       -0.9579113628        0.0084314581
 C          2.2419824940       -1.9765013860       -0.3671990663
 C          2.5230254685       -3.0232073249       -1.2366167994
 C          1.5238226996       -3.8949080333       -1.6325901730
 C          0.2231963405       -3.7202680634       -1.1961219359
 C         -0.0649549140       -2.6821896979       -0.3166639283
 C          0.9490676796       -1.8427807687        0.1168912691
 H          0.7074155782       -1.0495700413        0.8078302857
 N         -1.3727100284       -2.4567093465        0.1419131760
 S         -1.8413112187       -0.8478023803        0.3849464224
 O         -1.2936665282       -0.0029996042       -0.6524936255
 O         -1.5467615390       -0.4873059632        1.7472859872
 C         -3.6079049943       -0.9973921985        0.1884629801
 C         -4.2018174772       -0.5947133704       -0.9921029332
 C         -5.5722449404       -0.7453668544       -1.1386954766
 C         -6.3198558892       -1.2975989830       -0.1096910742
 C         -5.7094282439       -1.6970457723        1.0702940759
 C         -4.3406389647       -1.5465163393        1.2243130552
 H         -3.8230229151       -1.8308963057        2.1255895562
 H         -6.2942415068       -2.1231397045        1.8693473645
 H         -7.3855678513       -1.4145392148       -0.2268628145
 H         -6.0493329633       -0.4319762631       -2.0532501185
 H         -3.5797614845       -0.1669081614       -1.7622141806
 H         -2.0685373060       -2.9795057331       -0.3724352387
 H         -0.5643834716       -4.3755570636       -1.5358226471
 H          1.7541091312       -4.7013776176       -2.3120429887
 H          3.5247604242       -3.1341285075       -1.6239520272
 H          4.0958234541       -1.0172846421       -0.7434221704
 C          3.8895427161       -1.2748337904        1.3645297075
 C          4.9745248429       -2.3041488110        1.4601388654
 C          5.2944350490       -0.8552728971        1.6701790238
 H          5.5192291970       -0.5098227300        2.6676795651
 H          5.8382920381       -0.3348769925        0.8951473159
 H          4.9824629332       -2.9617692250        2.3155618914
 H          5.3103716650       -2.7673348267        0.5448539016
 H          3.1700450903       -1.2238551102        2.1708086099
