  62
        -98.94393582
 C         -1.8235462103       -1.1429687379        0.2499112248
 C         -2.1376257779       -0.1316950183       -0.6894325050
 C         -3.5620365335        0.0028723154       -1.0298881993
 C         -4.4574918702       -0.8286422597       -0.4665407795
 C         -5.9414970989       -0.7641479950       -0.6811029963
 C         -6.6150137239        0.1316623865        0.3680362622
 C         -5.9429541193        1.4939053444        0.5402825399
 H         -4.9420734485        1.3492423735        0.9535354218
 H         -6.5197728784        2.0498719901        1.2825594734
 C         -5.8407563431        2.3190372691       -0.7500851268
 H         -6.1341682959        3.3481252370       -0.5322369999
 H         -6.5397139129        1.9334472383       -1.4931798606
 C         -4.4375479151        2.3758636226       -1.3572488440
 H         -3.7162922130        2.6729324088       -0.5912311086
 H         -4.4313627493        3.1509682617       -2.1284373444
 C         -3.9389562611        1.0794255275       -2.0081729062
 H         -3.0236866492        1.3161952997       -2.5591390373
 H         -4.6830654222        0.7138602979       -2.7189076298
 H         -6.5923021782       -0.3850843525        1.3302264880
 H         -7.6589603183        0.2727827214        0.0825329210
 H         -6.1424910529       -0.3851358626       -1.6811382067
 H         -6.3455268763       -1.7743111900       -0.5965962893
 O         -4.1130996665       -1.8031175050        0.4135598300
 C         -2.7949699474       -1.9767473917        0.8033383645
 O         -2.6193269964       -2.8889644322        1.6360078441
 H          2.0326008205       -0.1399119686        0.1103875897
 C          1.4439934903        0.4026256923        0.8307377197
 C          0.1977406538       -0.0680252715        1.2142162482
 C         -0.5316246937        0.6611004633        2.1503542969
 C         -0.0384705233        1.8435534136        2.6651191291
 C          1.1950634615        2.3230214059        2.2607438206
 C          1.9395819519        1.5958964111        1.3401820332
 N          3.2149633849        2.0326258518        0.9611217520
 S          3.8514049023        1.7309964640       -0.5534426808
 O          4.9635966088        2.6538986054       -0.6532147458
 O          2.8625924944        1.8219446024       -1.6007540309
 C          4.4968938730        0.0746325063       -0.4495484010
 C          5.1155069109       -0.3360956235        0.7147160787
 C          5.6575475436       -1.6101621886        0.7703471681
 C          5.5821098450       -2.4444574569       -0.3345742775
 C          4.9623744646       -2.0152650328       -1.4981110813
 C          4.4132031150       -0.7436523846       -1.5584494423
 H          3.9101372261       -0.3738876601       -2.4381981253
 H          4.9041058630       -2.6644652059       -2.3576344729
 H          6.0057377251       -3.4352819322       -0.2894814753
 H          6.1382324042       -1.9484364165        1.6740711771
 H          5.1575390518        0.3380106890        1.5536406128
 H          3.4807222786        2.9420445238        1.3085553817
 H          1.5782459432        3.2521641946        2.6543159817
 H         -0.6204474173        2.4019480649        3.3831040654
 H         -1.4989065355        0.2893877948        2.4614743618
 C         -0.3834541217       -1.3544456334        0.6809450371
 H         -0.4191380453       -2.0806260258        1.5066983617
 C          0.4193730086       -1.9541622130       -0.4548233359
 C          1.5713405453       -2.8660655767       -0.1599362305
 C          0.2997625957       -3.4230820410       -0.7240428439
 H          0.2915430048       -3.7597449272       -1.7497969024
 H         -0.3470969408       -3.9925076093       -0.0723934024
 H          1.7950653656       -3.0662022715        0.8768690531
 H          2.4411847701       -2.8216722439       -0.7975588045
 H          0.4923688328       -1.2908017806       -1.3100529046
 O         -1.2769865354        0.6219156297       -1.2152922531
