  62
        -98.94357125
 C         -1.8368593123       -0.2973613690       -0.2792655933
 C         -2.9736114749       -0.5150272488       -1.0931101573
 C         -4.2601522130       -0.5738644926       -0.3904870061
 C         -4.2950001448       -0.4480459116        0.9489192051
 C         -5.5258628642       -0.5198504766        1.8117020742
 C         -6.2982573468        0.8025448394        1.9135186571
 C         -7.0675419104        1.2057293021        0.6549131486
 H         -7.6960331941        0.3749193664        0.3326010708
 H         -7.7312326709        2.0264518823        0.9342502630
 C         -6.1791803458        1.6642260417       -0.5099970266
 H         -5.1812900029        1.9030067100       -0.1352792933
 H         -6.5872953632        2.5814505683       -0.9404646653
 C         -6.0502498516        0.6494232037       -1.6459435801
 H         -5.3708146453        1.0600565392       -2.3972299016
 H         -7.0239957249        0.5015005013       -2.1182657099
 C         -5.5057092450       -0.7177339663       -1.2119541875
 H         -6.2667658672       -1.2673415798       -0.6583049778
 H         -5.2476239435       -1.2848935124       -2.1098400287
 H         -7.0136779618        0.6989638635        2.7325942162
 H         -5.5977461042        1.5963828259        2.1823300920
 H         -6.1887089002       -1.3016564558        1.4395621496
 H         -5.1870516099       -0.7982786152        2.8119182539
 O         -3.1759615858       -0.2580843508        1.6974897132
 C         -1.9240197280       -0.1616880057        1.1064425268
 O         -0.9914564354        0.0352214005        1.9073770690
 O         -2.9143655048       -0.6634509049       -2.3438172968
 C         -0.4705752971       -0.2122802449       -0.9322690896
 C          0.4586014367       -1.2620760028       -0.3747021816
 C         -0.0198859810       -2.5532975940       -0.1658865311
 C          0.8027381602       -3.5389729996        0.3421299672
 C          2.1276236945       -3.2653631166        0.6336743986
 C          2.6211153789       -1.9862482795        0.4130653278
 C          1.7871066649       -0.9933644842       -0.0841644879
 H          2.1903040450       -0.0080498932       -0.2476453251
 N          3.9559309530       -1.6736709092        0.7069137476
 S          4.8289107078       -0.6719688583       -0.3074609434
 O          4.4320686159       -0.8306380650       -1.6869865010
 O          6.2138671426       -0.9714476211       -0.0097509497
 C          4.4709565092        0.9802479970        0.2504511709
 C          4.4180504193        1.9988304962       -0.6803825612
 C          4.1895151876        3.2951018778       -0.2453860169
 C          4.0183205818        3.5485107725        1.1066454637
 C          4.0760118302        2.5143909310        2.0286733380
 C          4.3092524845        1.2171117701        1.6010193207
 H          4.3555619142        0.3913105514        2.2911051069
 H          3.9383745736        2.7144259007        3.0791265962
 H          3.8370835902        4.5570978587        1.4434017757
 H          4.1441288555        4.1003021676       -0.9616279581
 H          4.5442374990        1.7550661867       -1.7233362877
 H          4.5125957623       -2.4460126949        1.0425601526
 H          2.7728856521       -4.0349829878        1.0293775996
 H          0.4125507612       -4.5321724111        0.5070308281
 H         -1.0524256083       -2.7727843933       -0.4015817010
 H         -0.6393061047       -0.4416334408       -1.9958371354
 C          0.0734237638        1.1970473789       -0.8202924512
 C          0.9774715365        1.7506508991       -1.8794777858
 C         -0.4332590421        2.2426984815       -1.7663730250
 H         -0.6035177377        3.2402223945       -1.3905035540
 H         -1.1479236679        1.9290213866       -2.5133779190
 H          1.7756514090        2.4114627442       -1.5768316984
 H          1.2304314957        1.1068473396       -2.7087001856
 H          0.2483546733        1.4928395860        0.2083546712
