  62
        -98.93401942
 C         -2.2383778364       -1.0118946643        0.3679632630
 C         -2.2961902108        0.0550555641       -0.5602773053
 C         -3.2129208028        1.1628005585       -0.2240995526
 C         -3.8831621294        1.1335006651        0.9398011918
 C         -4.9005440414        2.1228497821        1.4363997951
 C         -6.3223857162        1.6705517765        1.0625051385
 C         -6.7987388665        2.1173950665       -0.3192346686
 H         -7.7541730775        1.6226533122       -0.5084953844
 H         -6.9849973497        3.1933031566       -0.3029621911
 C         -5.8452884362        1.8040873384       -1.4754973807
 H         -5.4466010675        0.7944665156       -1.3610210297
 H         -6.4257356493        1.8182308746       -2.3999930630
 C         -4.6927057216        2.8119846610       -1.5981436553
 H         -4.9146695747        3.6816483658       -0.9797489073
 H         -4.6358587140        3.1710066866       -2.6277109492
 C         -3.3007467562        2.2671430489       -1.2419245444
 H         -2.8297773601        1.8539414916       -2.1393665023
 H         -2.6661052578        3.0963264764       -0.9120170029
 H         -7.0210449505        2.0630034351        1.8041665008
 H         -6.3551925214        0.5798811293        1.1292715038
 H         -4.6905156025        3.1171433477        1.0534946041
 H         -4.8152683532        2.1386173239        2.5250705182
 O         -3.7449498572        0.1186510185        1.8381534176
 C         -2.9273529618       -0.9663271244        1.5816016535
 O         -2.8864115897       -1.8067937383        2.5033663301
 O         -1.6286898548        0.0932063897       -1.6250963704
 C         -1.3502976792       -2.2222134630        0.1364985997
 C          0.0175264983       -1.7793550679       -0.3241046469
 C          0.6142749712       -2.2054596503       -1.5024832316
 C          1.8790727974       -1.7605186102       -1.8465335067
 C          2.5729570560       -0.8864960780       -1.0309400949
 C          1.9876115864       -0.4570352017        0.1531917698
 C          0.7255845940       -0.9121546527        0.5000234709
 H          0.2685779963       -0.5771405390        1.4246051938
 N          2.6789114341        0.4456886570        0.9819185240
 S          4.2500953514        0.0593852861        1.4317728723
 O          4.4516024013       -1.3708116224        1.4722957992
 O          4.4754039933        0.7749349020        2.6692060461
 C          5.2549300505        0.7829522947        0.1525488003
 C          5.1235268965        2.1361202335       -0.0903911446
 C          5.9033894367        2.7171671548       -1.0774288532
 C          6.7979802773        1.9403641628       -1.7986466808
 C          6.9205186118        0.5837557242       -1.5401275662
 C          6.1427152253       -0.0040116116       -0.5545249391
 H          6.1996106662       -1.0554744667       -0.3221288969
 H          7.6167696071       -0.0181964738       -2.1016147512
 H          7.4030098122        2.3954052766       -2.5668777278
 H          5.8105413320        3.7717622550       -1.2813611235
 H          4.4188841820        2.7042257135        0.4938405342
 H          2.1464777254        0.7462365182        1.7854684672
 H          3.5539796146       -0.5315994744       -1.3014009247
 H          2.3280885537       -2.0941892784       -2.7695808072
 H          0.0813650380       -2.8681925920       -2.1639714958
 H         -1.2301286690       -2.6785331340        1.1339147041
 C         -1.9720365664       -3.2898498071       -0.7517732254
 C         -3.4600176402       -3.4496939072       -0.8390569345
 C         -2.6884706047       -2.9581533097       -2.0248529492
 H         -2.5692286064       -3.6236535215       -2.8673400734
 H         -2.7650853026       -1.9178834357       -2.2972854816
 H         -3.8669914564       -4.4494835190       -0.8643409626
 H         -4.0719696488       -2.7447175941       -0.2947479848
 H         -1.3935762243       -4.2086629132       -0.7416958476
