  62
        -98.94076552
 C         -1.6155906596       -0.6163012505        0.3705165793
 C         -2.7364535396       -0.8974829707       -0.4499127007
 C         -3.6798372297        0.2166657691       -0.6358393010
 C         -3.4168335799        1.4232787992       -0.1051293111
 C         -4.2683723300        2.6565755891       -0.2379937914
 C         -5.4169992101        2.7332356191        0.7772170086
 C         -6.5757351400        1.7679404789        0.5238505586
 H         -7.3976250300        2.0770732389        1.1727723386
 H         -6.9172539699        1.8739605787       -0.5062857314
 C         -6.2484888398        0.2957781390        0.8106729689
 H         -5.3487342798        0.2361348992        1.4276668190
 H         -7.0608852498       -0.1521463810        1.3875336089
 C         -6.0509078296       -0.5645791811       -0.4375578910
 H         -5.7884184495       -1.5765098011       -0.1182221408
 H         -6.9883293296       -0.6210393313       -0.9952805510
 C         -4.9496867696       -0.0642407811       -1.3814016010
 H         -5.2857092897        0.8257511587       -1.9127563011
 H         -4.7398744095       -0.8506595412       -2.1104071208
 H         -5.0119047401        2.5612585093        1.7772336086
 H         -5.8093476102        3.7524385791        0.7489952984
 H         -3.6074504901        3.5102612492       -0.0738178415
 H         -4.6709856800        2.7178142889       -1.2493983814
 O         -2.2937561599        1.6708050195        0.6215355389
 C         -1.3901641698        0.6584513197        0.8962795691
 O         -0.4298490299        1.0124555699        1.6101559991
 O         -2.9566400994       -2.0019608408       -1.0069642606
 C         -0.5566483395       -1.6490520503        0.7207149295
 C          0.5616206405       -1.6037749803       -0.2882743704
 C          0.3049940006       -1.6995670005       -1.6531394004
 C          1.3428731106       -1.6414751405       -2.5642989304
 C          2.6482753906       -1.4682430003       -2.1365749803
 C          2.9141031005       -1.3651951301       -0.7766779503
 C          1.8713560305       -1.4446304700        0.1373814196
 H          2.0928357304       -1.3616520399        1.1905783896
 N          4.2300783605       -1.1996576798       -0.3125275803
 S          4.5761676703       -0.0199938596        0.8251849695
 O          6.0205643802        0.0564700506        0.8303556296
 O          3.9534462002       -0.3497498995        2.0804513296
 C          3.9007209301        1.4807632502        0.1384015393
 C          2.5857520100        1.8264179101        0.3748197591
 C          2.0780122099        2.9653148299       -0.2320069111
 C          2.8835718099        3.7345180299       -1.0562887111
 C          4.2043041799        3.3743828500       -1.2806941210
 C          4.7170455101        2.2351936802       -0.6836038008
 H          5.7394910901        1.9229877603       -0.8230996507
 H          4.8315521599        3.9762162300       -1.9184323711
 H          2.4800722898        4.6196246798       -1.5225256013
 H          1.0490338899        3.2325905098       -0.0474666312
 H          1.9636968501        1.2279551101        1.0217042992
 H          4.9254420805       -1.1874006898       -1.0453441303
 H          3.4565225006       -1.4154265703       -2.8500176003
 H          1.1335477507       -1.7232591407       -3.6201265804
 H         -0.7141506194       -1.8257419907       -1.9864638505
 H         -0.1371491896       -1.3201917801        1.6858537995
 C         -1.1205313394       -3.0471874203        0.9320603997
 C         -0.8292157192       -4.2054646604        0.0309231099
 C         -0.2102294592       -4.1471750701        1.3929716499
 H         -0.5610170992       -4.8259302700        2.1556808900
 H          0.8445840007       -3.9217447100        1.4547673599
 H         -1.6275209691       -4.9092234305       -0.1484794400
 H         -0.1927358391       -4.0432284705       -0.8242994001
 H         -2.1112786994       -3.0222548804        1.3737923496
