  62
        -98.94430665
 C          2.0875731567        1.3903715365        0.0203155921
 C          2.3868019620        0.4315038719       -0.9775902104
 C          3.7326083354       -0.1598293123       -0.9198584684
 C          4.5941325980        0.2340167208        0.0344670269
 C          5.9686810289       -0.3310368422        0.2410447841
 C          5.9420279037       -1.5074653880        1.2269423560
 C          4.8699534208       -2.5517534409        0.9146689799
 H          4.9661576819       -3.3480809352        1.6559980925
 H          3.8830436699       -2.1036744078        1.0533582694
 C          4.9600007094       -3.1529008447       -0.4950228552
 H          5.9512296961       -2.9718809254       -0.9123599749
 H          4.8315871908       -4.2350114615       -0.4224536021
 C          3.8983592479       -2.6437600896       -1.4718860123
 H          3.9150436838       -3.2865498400       -2.3562547221
 H          2.9084730044       -2.7390577889       -1.0175959370
 C          4.0729559715       -1.1974801430       -1.9527014256
 H          5.0892023394       -1.0536265052       -2.3245992193
 H          3.3778163468       -1.0369774226       -2.7819073271
 H          5.7549112307       -1.1153874331        2.2293191687
 H          6.9251853164       -1.9815601199        1.2256853748
 H          6.3716916326       -0.6547252311       -0.7165800403
 H          6.6066761417        0.4562294372        0.6461529081
 O          4.2831357870        1.1735443497        0.9620985010
 C          3.0310993106        1.7603730241        0.9859245369
 O          2.8790867791        2.5965402722        1.8985412774
 H         -0.2772407754       -0.2334706293       -0.8100985566
 C         -0.7120841312        0.0381295858        0.1402567907
 C         -0.2907200231        1.1992805809        0.7728741661
 C         -0.8516412093        1.5279816951        2.0014019292
 C         -1.8029421180        0.7089393547        2.5848833931
 C         -2.2141323113       -0.4521387009        1.9557898136
 C         -1.6585346836       -0.7887778992        0.7277027516
 N         -2.0712481623       -1.9650475823        0.0774326813
 S         -3.7184732843       -2.2391521198       -0.0322782266
 O         -4.1954286397       -2.8129449598        1.2019493840
 O         -3.8966452012       -3.0528040478       -1.2142963561
 C         -4.4411027741       -0.6242398364       -0.2651077638
 C         -5.3232024207       -0.1210322904        0.6689822935
 C         -5.8414309198        1.1509507734        0.4843198580
 C         -5.4666989941        1.8948814496       -0.6234149035
 C         -4.5817904563        1.3734856179       -1.5549605093
 C         -4.0615992222        0.1023654983       -1.3764360653
 H         -3.3736438827       -0.3315257930       -2.0845591577
 H         -4.2918650491        1.9529161395       -2.4167581506
 H         -5.8661332470        2.8868461788       -0.7638041079
 H         -6.5313823140        1.5580484314        1.2058157535
 H         -5.5845020667       -0.7323189307        1.5173635697
 H         -1.6123362857       -2.1164349713       -0.8090846288
 H         -2.9461481730       -1.1076696686        2.3992589656
 H         -2.2269065222        0.9756517506        3.5408801657
 H         -0.5251055404        2.4257215576        2.5058611360
 C          0.7427860981        2.0942897350        0.1308560267
 H          0.9122856513        2.9436430570        0.8054938215
 C          0.2439332352        2.6325467753       -1.1971388676
 C         -0.7842955440        3.7216719457       -1.1966132528
 C          0.6244734042        4.0204669775       -1.6119364410
 H          0.8292223362        4.2084180978       -2.6552897420
 H          1.2469613731        4.5905116238       -0.9373052227
 H         -1.5502425552        3.7065844840       -1.9562715518
 H         -1.1199984169        4.0918516737       -0.2399495408
 H          0.1854475334        1.8813726410       -1.9731778056
 O          1.5894540355        0.0663437027       -1.8839602937
