  62
        -98.94641114
 C         -1.6204283775       -1.3926214386       -0.0713425217
 C         -2.6941659857       -0.8921450391        0.7002032902
 C         -3.2944624108        0.3586727811        0.2210997588
 C         -2.8089384784        0.9512897656       -0.8854384365
 C         -3.3195539468        2.2267582066       -1.5006281017
 C         -2.7614524947        3.5042869533       -0.8576698466
 C         -3.3080400068        3.8282302748        0.5330709554
 H         -3.0046888820        4.8505671992        0.7675314852
 H         -4.3979926566        3.8099324625        0.5099942327
 C         -2.7988679321        2.8967059738        1.6420487529
 H         -1.9162989407        2.3580103270        1.2877162813
 H         -2.4855475346        3.4907792571        2.5038242253
 C         -3.8301554065        1.8830058842        2.1377396995
 H         -3.3565804068        1.2513613737        2.8940594174
 H         -4.6612524796        2.4086263791        2.6130714511
 C         -4.3914802424        0.9695374014        1.0402093584
 H         -5.0786980595        1.5258644580        0.4031780074
 H         -4.9403061070        0.1556280639        1.5206033729
 H         -1.6732655496        3.4265850337       -0.8039184456
 H         -3.0044452948        4.3366926381       -1.5221101455
 H         -4.4089053729        2.2443284576       -1.4555321337
 H         -3.0169876709        2.2077257431       -2.5496858110
 O         -1.7813743992        0.4302854180       -1.6067450427
 C         -1.1540903521       -0.7449790769       -1.2169665333
 O         -0.2202392100       -1.1006570683       -1.9561463533
 O         -3.1251938677       -1.4571943555        1.7422283103
 C         -0.9082053195       -2.6552553464        0.3771797546
 C          0.5623838802       -2.3703734997        0.5606982998
 C          1.5680032300       -3.2196278031        0.1189283389
 C          2.8998326826       -2.8777110214        0.2835550806
 C          3.2589302868       -1.6869002313        0.8870272797
 C          2.2603731527       -0.8355881036        1.3424389001
 C          0.9294199180       -1.1864191552        1.1890621912
 H          0.1562337280       -0.5166837791        1.5465580103
 N          2.6108504222        0.3933238572        1.9419950042
 S          3.4955712017        1.4486987730        0.9834405912
 O          4.8502205042        0.9663456492        0.8894288089
 O          3.3240291496        2.7483335087        1.5939033214
 C          2.7184937669        1.4059628829       -0.6195985777
 C          3.2132852272        0.5618384483       -1.5924339286
 C          2.5685449086        0.5017039498       -2.8166115006
 C          1.4486285797        1.2835116745       -3.0466812401
 C          0.9673866023        2.1306711823       -2.0614602584
 C          1.6004061521        2.1876882858       -0.8313037059
 H          1.2563973619        2.8344702001       -0.0384988004
 H          0.0926040628        2.7333049309       -2.2481926110
 H          0.9405414729        1.2271550339       -3.9960152005
 H          2.9339150199       -0.1617475375       -3.5835151195
 H          4.0901948034       -0.0262171358       -1.3769703441
 H          1.8153539566        0.8831404987        2.3269389628
 H          4.2901030299       -1.3950274490        1.0041718722
 H          3.6696888406       -3.5460464340       -0.0708858174
 H          1.3100316547       -4.1468477226       -0.3656417363
 H         -1.3402019802       -2.9077278361        1.3572909951
 C         -1.1865979025       -3.7918498548       -0.5841474442
 C         -1.2153770260       -5.2086836659       -0.0960273496
 C         -2.4906569983       -4.5223305087       -0.4802560057
 H         -2.9877283609       -4.8236805860       -1.3900801754
 H         -3.1669259038       -4.2180215496        0.3053508260
 H         -0.8385516788       -5.9856357217       -0.7440302845
 H         -1.0302046306       -5.3810270410        0.9534801679
 H         -0.7988082019       -3.5977240674       -1.5778404739
