  62
        -98.94508803
 C         -1.0371541494       -1.5095576383       -0.4502431835
 C         -2.2771913982       -1.6567595475        0.2243425297
 C         -3.3273973854       -0.6910251836       -0.1205685619
 C         -3.0687532686        0.2582020568       -1.0382345735
 C         -4.0532877004        1.2950884637       -1.4966117648
 C         -3.9660770792        2.5815901649       -0.6650024678
 C         -3.9364962011        2.3385284717        0.8433975707
 H         -3.0237288425        1.7958020543        1.0990800050
 H         -3.8834932334        3.3143320511        1.3311200628
 C         -5.1511458920        1.5699511241        1.3824441731
 H         -5.9666771800        1.6110027522        0.6593245512
 H         -5.5011083027        2.0614194771        2.2927019191
 C         -4.8717121214        0.1103611450        1.7451410403
 H         -3.9941193709        0.0543286285        2.3939035908
 H         -5.7247970983       -0.2665863183        2.3156769110
 C         -4.6580030553       -0.8415787525        0.5614927226
 H         -4.6817056897       -1.8647024432        0.9478950519
 H         -5.4747947426       -0.7276133600       -0.1544557782
 H         -4.8199943276        3.2131597322       -0.9172476093
 H         -3.0559380788        3.1125450410       -0.9486974343
 H         -3.8375108233        1.5312967672       -2.5400715974
 H         -5.0568685482        0.8779540497       -1.4324695044
 O         -1.8630817921        0.3860723083       -1.6455113815
 C         -0.8178358686       -0.4882378955       -1.3746210289
 O          0.2147402894       -0.2440887504       -2.0262946968
 H          2.1240092443       -0.8208030221       -0.6515745032
 C          2.0673587616       -1.1136659736        0.3844538398
 C          1.0633185881       -1.9695063202        0.8168767459
 C          1.0027979807       -2.3039074188        2.1664004842
 C          1.9347642969       -1.8091673893        3.0597951748
 C          2.9410914568       -0.9661997631        2.6249692925
 C          3.0025198049       -0.6140931490        1.2806930263
 N          4.0142190815        0.2396603369        0.8210696129
 S          3.7382986554        1.3139621144       -0.4249573648
 O          3.8031420891        0.6388048509       -1.6954000639
 O          4.7405477175        2.3424984857       -0.2208453478
 C          2.1268626551        2.0258559841       -0.1448814479
 C          1.3370584253        2.3387415451       -1.2307793907
 C          0.1178728663        2.9621335381       -1.0153344837
 C         -0.2881442741        3.2573471242        0.2755961322
 C          0.5161098302        2.9340363661        1.3573766656
 C          1.7386712724        2.3187149736        1.1478803267
 H          2.3832793372        2.0677873677        1.9743064252
 H          0.1940430740        3.1613355585        2.3610260432
 H         -1.2360799396        3.7439535925        0.4439349425
 H         -0.5100924803        3.2022039367       -1.8586986375
 H          1.6769489128        2.0739118695       -2.2184676669
 H          4.6077802609        0.6335857797        1.5360576702
 H          3.6759240360       -0.5829326583        3.3164772272
 H          1.8780966952       -2.0812986794        4.1026521297
 H          0.2094262761       -2.9521947179        2.5090642828
 C          0.0399043296       -2.5357448331       -0.1375996095
 H         -0.4885517627       -3.3428532006        0.3887614501
 C          0.6836381441       -3.1231376669       -1.3771634384
 C          1.3644567217       -4.4540830626       -1.2763830629
 C          0.0676049559       -4.3293618137       -2.0172736736
 H          0.0771276765       -4.4017941052       -3.0945675952
 H         -0.8219567470       -4.7386478992       -1.5606062909
 H          2.2689275139       -4.6130265972       -1.8434002007
 H          1.3534527949       -4.9497741408       -0.3173236634
 H          1.1206148063       -2.3841169515       -2.0361687968
 O         -2.5012871985       -2.5711679481        1.0620507712
