  62
        -98.93285531
 C         -2.2793405061       -0.6350830046        0.6064356873
 C         -3.3637514486       -0.9204014624       -0.2548883765
 C         -4.6280137365       -0.1940176281       -0.0057914631
 C         -4.6827460481        0.7000294306        0.9977501859
 C         -5.8331102031        1.5787948039        1.4129271676
 C         -6.0475016585        2.7681123442        0.4639343705
 C         -5.9931902165        2.4206393123       -1.0210702154
 H         -6.0645075154        3.3555225591       -1.5832136507
 H         -5.0215990616        1.9789710843       -1.2495921576
 C         -7.1024329083        1.4934394126       -1.5120788209
 H         -8.0717823035        1.9477460528       -1.2956024784
 H         -7.0054250613        1.4203047036       -2.5982402889
 C         -7.0895895697        0.0738511495       -0.9400824801
 H         -7.7500276238       -0.5343239186       -1.5650413887
 H         -7.5059687699        0.0480223438        0.0633035201
 C         -5.7242764987       -0.6056082816       -0.9596566036
 H         -5.8664711498       -1.6800989161       -0.7930850935
 H         -5.2979957348       -0.5260316269       -1.9660209818
 H         -7.0098915844        3.2260886572        0.6988046536
 H         -5.2652242690        3.5047293799        0.6631088337
 H         -6.7404189923        0.9891298617        1.5041628606
 H         -5.5867529156        1.9653317751        2.4044335109
 O         -3.6052968729        0.9573017990        1.7947825583
 C         -2.4022361029        0.3056242771        1.6333293718
 O         -1.5261994025        0.6376163058        2.4591483665
 H          1.4921721126       -0.1608706276        0.8284703322
 C          1.1889337320       -0.1872952068       -0.2084267106
 C         -0.0446909351       -0.7156820917       -0.5588557922
 C         -0.4171687456       -0.7166186056       -1.8991026451
 C          0.4338515554       -0.2030261462       -2.8603628029
 C          1.6763959944        0.2959913141       -2.5111762129
 C          2.0551855089        0.3059170524       -1.1739971886
 N          3.3025128403        0.8172686388       -0.7821207625
 S          4.0931224701        0.0762411337        0.5134152741
 O          3.9502508650       -1.3593098956        0.4251638745
 O          3.6485988797        0.6875892242        1.7410778582
 C          5.7798988236        0.5495786649        0.1807542404
 C          6.6116653803       -0.3342650519       -0.4805838812
 C          7.9126941971        0.0523475480       -0.7617609333
 C          8.3563260606        1.3101124616       -0.3817905193
 C          7.5099145198        2.1860396516        0.2819136835
 C          6.2082834796        1.8055469816        0.5674818485
 H          5.5178104745        2.4475089388        1.0895513744
 H          7.8593139707        3.1618317132        0.5784926577
 H          9.3691767158        1.6087006279       -0.6013668547
 H          8.5739569193       -0.6275494360       -1.2743577205
 H          6.2251864041       -1.3044603565       -0.7485651940
 H          3.9244175883        0.9836564984       -1.5614436266
 H          2.3459894848        0.6801987088       -3.2657822585
 H          0.1326756168       -0.2061969437       -3.8971546466
 H         -1.3774734518       -1.1238357495       -2.1752905687
 C         -0.9245497683       -1.3165353890        0.5115758308
 H         -0.4338203238       -1.1291189757        1.4772725871
 C         -1.0172256665       -2.8184728056        0.3097197125
 C          0.1957341406       -3.6544982761        0.5816157732
 C         -0.9863901982       -3.7252086119        1.5006386558
 H         -1.5978389532       -4.6150260619        1.4869001914
 H         -0.9019267208       -3.2675626783        2.4760671285
 H          0.3947640676       -4.4963063569       -0.0638847525
 H          1.0868457736       -3.1491054908        0.9266163036
 H         -1.6504178213       -3.1011084285       -0.5207410337
 O         -3.3153071466       -1.7437568817       -1.2078827120
