  62
        -98.93167037
 C          1.9872918544        1.0196620286        0.7081586256
 C          2.0222645847        0.2777921836       -0.4979384686
 C          2.2941478889       -1.1609712736       -0.3618249761
 C          2.4321470073       -1.7047662040        0.8593343200
 C          2.6306952585       -3.1621907557        1.1841564733
 C          3.9396118361       -3.8071952882        0.6891651097
 C          3.8266024509       -4.5035597548       -0.6726127492
 H          4.3977226421       -5.4335346653       -0.6395168053
 H          2.7846839907       -4.7803876376       -0.8379823859
 C          4.3408563952       -3.7045809987       -1.8737871721
 H          5.4321306626       -3.7484957576       -1.8903796289
 H          3.9774515190       -4.1927483871       -2.7804853081
 C          3.9412855895       -2.2295023219       -1.9119986746
 H          4.1980364074       -1.8315811016       -2.8956341980
 H          4.5359920304       -1.6689283405       -1.1868814854
 C          2.4517773328       -1.9591723529       -1.6232080679
 H          2.0165148880       -1.3587460341       -2.4247472950
 H          1.8938584531       -2.8920074874       -1.5539066860
 H          4.7296360122       -3.0570097443        0.6707562543
 H          4.2211563258       -4.5552473822        1.4320072377
 H          2.5927050205       -3.2220805995        2.2740812727
 H          1.7768368141       -3.7205595057        0.7924609035
 O          2.3521601872       -0.9629948371        1.9994789151
 C          2.1163165380        0.3999490744        1.9519229320
 O          2.0402952853        0.9437548966        3.0743767600
 H         -0.5891212673        1.0877342540        0.7417311581
 C         -0.6487378630        1.8836359915        0.0120741174
 C          0.4348410234        2.7394204337       -0.1519276947
 C          0.3347450507        3.7638874880       -1.0824836507
 C         -0.8204386570        3.9144526582       -1.8319935046
 C         -1.8846293750        3.0463008657       -1.6833479235
 C         -1.7882248430        2.0071304932       -0.7615078878
 N         -2.8248337168        1.0666498029       -0.6452944774
 S         -2.8416602754       -0.0962603717        0.5617065158
 O         -2.9223950078        0.5183392473        1.8707551196
 O         -1.7494591742       -1.0135923753        0.3492238533
 C         -4.3853820314       -0.8998542125        0.1745848044
 C         -4.4183328477       -1.7782760152       -0.8921960769
 C         -5.6177761713       -2.3893150830       -1.2207933967
 C         -6.7586323514       -2.1138597768       -0.4812238515
 C         -6.7098327189       -1.2328671327        0.5883927536
 C         -5.5131608775       -0.6170971219        0.9211930268
 H         -5.4243580494        0.0685284316        1.7484580156
 H         -7.5970456309       -1.0235114661        1.1638556453
 H         -7.6906713059       -2.5915712916       -0.7386656542
 H         -5.6583399812       -3.0767669094       -2.0502374095
 H         -3.5038459384       -1.9672934205       -1.4303230469
 H         -3.7417821488        1.4248987931       -0.8680964433
 H         -2.7758100622        3.1550040238       -2.2815722102
 H         -0.8871946673        4.7169850602       -2.5509131842
 H          1.1637780338        4.4349233499       -1.2357130101
 C          1.6443233714        2.4996835361        0.7210462710
 H          1.3425706956        2.7068937873        1.7626342597
 C          2.8124946313        3.4261556157        0.4162250461
 C          4.2296442942        2.9654022231        0.5796622715
 C          3.6841913368        3.2396217912       -0.7878602527
 H          4.0323388300        4.1195153879       -1.3089115701
 H          3.4636841565        2.4039125827       -1.4322796160
 H          4.9464056713        3.6549623854        1.0001757066
 H          4.3895898383        1.9371766213        0.8714934930
 H          2.6083874534        4.4491002644        0.7174241204
 O          1.8303989992        0.7761989617       -1.6372450769
