  62
        -98.94780841
 C          1.0185016402        0.9537571701        0.7136548695
 C          1.6782708403        0.8767585199       -0.5361084105
 C          2.3673127500       -0.3901752803       -0.8188281605
 C          2.2733787796       -1.4028094402        0.0611209195
 C          2.9495413593       -2.7347352204       -0.0873016704
 C          4.3381099892       -2.7323176208        0.5677248797
 C          5.2069109696       -1.5393665911        0.1699073197
 H          4.7535169998       -0.6239705409        0.5565576497
 H          6.1707910095       -1.6581032413        0.6693211398
 C          5.4291500297       -1.3927773611       -1.3417608002
 H          5.1956326995       -2.3322605810       -1.8440979303
 H          6.4852549998       -1.1818124514       -1.5224622602
 C          4.6314451701       -0.2608963109       -1.9921938703
 H          4.7907813103        0.6662998291       -1.4360380703
 H          5.0195807002       -0.1075857910       -3.0026900403
 C          3.1200168500       -0.4940078304       -2.1147103004
 H          2.7099011703        0.2896361497       -2.7590680604
 H          2.9298035198       -1.4574969504       -2.5932879304
 H          4.8465028590       -3.6605144910        0.3005798197
 H          4.2084605591       -2.7146295008        1.6521706397
 H          2.3303283190       -3.4923731803        0.3966646495
 H          3.0327524193       -2.9750707504       -1.1457523604
 O          1.5774471696       -1.3130499101        1.2235015895
 C          0.9361225599       -0.1360641299        1.5786027494
 O          0.3323834398       -0.1882217997        2.6691544694
 H         -1.4436492599        0.3762430508        0.2511990693
 C         -1.6348465596        1.3192685409       -0.2398254407
 C         -0.8515162293        2.4202006506        0.0834869293
 C         -1.1187653489        3.6311846907       -0.5399272407
 C         -2.1237403488        3.7185471010       -1.4887280907
 C         -2.8669186891        2.6078034212       -1.8435101708
 C         -2.6163540995        1.3940067212       -1.2123698408
 N         -3.3532291498        0.2423333914       -1.5247277609
 S         -2.6223972602       -1.2611157988       -1.4491925308
 O         -1.2351346102       -1.2172589392       -1.8506053507
 O         -3.4826070204       -2.1103349086       -2.2485836309
 C         -2.7692698805       -1.7439044288        0.2569515191
 C         -3.9616633505       -1.5159166985        0.9149166991
 C         -4.0788306307       -1.9093330385        2.2380679990
 C         -3.0108055909       -2.5226004488        2.8755976091
 C         -1.8234120309       -2.7517702591        2.1987135992
 C         -1.7011726907       -2.3616915291        0.8750985392
 H         -0.7879544207       -2.5044206194        0.3173786093
 H         -0.9864653511       -3.2151251494        2.6958103093
 H         -3.1000265911       -2.8208889788        3.9082423591
 H         -4.9995912707       -1.7325085082        2.7704273590
 H         -4.7671938503       -1.0323464783        0.3880366590
 H         -3.9750088397        0.3265954916       -2.3155371509
 H         -3.6303836090        2.6736623115       -2.6035493309
 H         -2.3185608385        4.6632948611       -1.9733490407
 H         -0.5328566187        4.5020047406       -0.2957512006
 C          0.2527541706        2.2102684203        1.0918126694
 H         -0.2103548796        2.0019998704        2.0675529994
 C          1.1857260409        3.3934110401        1.2331700595
 C          0.8368439311        4.5200534701        2.1574847195
 C          1.9389517008        3.5704571798        2.5162071796
 H          2.9593198809        3.9204118595        2.4710483896
 H          1.7596201206        2.8482687399        3.2995735995
 H         -0.0905416489        4.4479170204        2.7050935094
 H          1.1030923914        5.5255883601        1.8687952895
 H          1.7056476610        3.6262150199        0.3111707095
 O          1.6982957206        1.8188405099       -1.3715671305
