  62
        -98.94351015
 C         -1.7938176229       -1.3622683872        0.3075327303
 C         -1.8999125971       -0.1555286806        1.0490590645
 C         -3.1702916412        0.5688675112        0.9411242614
 C         -4.1532820020        0.0725865892        0.1681484308
 C         -5.5293816060        0.6563322478       -0.0047497191
 C         -5.6140137322        1.7677929946       -1.0594466220
 C         -4.9827237791        3.0986248184       -0.6499342986
 H         -5.2994482352        3.8430349903       -1.3831085233
 H         -5.3809178123        3.4051743439        0.3179207942
 C         -3.4490490161        3.0789963510       -0.5961090875
 H         -3.0758633560        2.2124044177       -1.1467572509
 H         -3.0564589879        3.9681320840       -1.0943468233
 C         -2.8639539158        3.0563646640        0.8155424073
 H         -3.1237757771        3.9805423354        1.3365594999
 H         -1.7760751348        3.0118740813        0.7287381170
 C         -3.3154047291        1.8682769360        1.6747079758
 H         -4.3476133760        2.0080535311        1.9961406427
 H         -2.6771126622        1.8222253926        2.5607823300
 H         -6.6726977230        1.9399311492       -1.2667984149
 H         -5.1486775074        1.4110846253       -1.9811424262
 H         -6.1764270707       -0.1657901280       -0.3183432047
 H         -5.8884221618        1.0343366810        0.9530692337
 O         -4.0050568112       -1.0691006218       -0.5501111161
 C         -2.8253152454       -1.8017446599       -0.5235216929
 O         -2.8484226480       -2.7946632951       -1.2769182684
 O         -0.9747694510        0.2854925700        1.7827060750
 C         -0.5011178886       -2.1408975371        0.4715837361
 C          0.5167353773       -1.8022386406       -0.5913809396
 C          0.2081384598       -1.8674640460       -1.9457381464
 C          1.1694751327       -1.5699099854       -2.8942550448
 C          2.4475352328       -1.1987314301       -2.5140320943
 C          2.7688932566       -1.1394163851       -1.1628384255
 C          1.8024430444       -1.4445907469       -0.2138884782
 H          2.0665065627       -1.4009346499        0.8312799595
 N          4.0677184030       -0.8046070838       -0.7533167838
 S          4.3578657771        0.1777247091        0.5676434738
 O          5.7722872103        0.4672546558        0.4869672609
 O          3.9089157118       -0.4682661745        1.7739070217
 C          3.4285888291        1.6663920418        0.2530886326
 C          4.0385205751        2.6562420825       -0.4948583879
 C          3.3319491338        3.8092010443       -0.7926349009
 C          2.0272649980        3.9521822116       -0.3438743498
 C          1.4312943797        2.9497994166        0.4040337697
 C          2.1315094746        1.7925212956        0.7069282731
 H          1.6726940947        1.0084908823        1.2876971584
 H          0.4184153012        3.0497481073        0.7611715061
 H          1.4729885725        4.8485245428       -0.5737077744
 H          3.7974099361        4.5910519832       -1.3708650501
 H          5.0588543289        2.5103815002       -0.8107300294
 H          4.7019864742       -0.5875082500       -1.5081479155
 H          3.1946456615       -0.9664339192       -3.2575352985
 H          0.9197738606       -1.6242350169       -3.9431681298
 H         -0.7870160742       -2.1595357138       -2.2449117686
 H         -0.0868482828       -1.8114462635        1.4352144464
 C         -0.6954597378       -3.6442444632        0.5315219990
 C          0.3490857382       -4.4850888049        1.1991442393
 C         -0.9894150875       -4.2967675381        1.8471335563
 H         -1.6778762724       -5.1281393095        1.8666282880
 H         -1.0480053720       -3.6615983883        2.7193255920
 H          0.5829256057       -5.4485625063        0.7729551210
 H          1.1993608289       -3.9797654115        1.6329538223
 H         -1.1837186239       -4.0489623368       -0.3452245664
