  62
        -98.93864562
 C         -1.8554031439       -0.9865951825        0.3900128290
 C         -2.1653955703        0.1692134936       -0.3632132574
 C         -3.4806699229        0.7894745560       -0.1115860590
 C         -4.3071525521        0.2580920106        0.8073941672
 C         -5.6702320408        0.6980669772        1.2989547944
 C         -6.5003164470        1.7070482909        0.5091767039
 C         -6.9856784453        1.2119224242       -0.8525570138
 H         -7.7248013797        0.4227739314       -0.6929652024
 H         -7.4881175042        2.0405760980       -1.3565042809
 C         -5.9048606043        0.6522220729       -1.7741235858
 H         -5.4748309842       -0.2481950691       -1.3307352557
 H         -6.3861154170        0.3516461904       -2.7087691641
 C         -4.7768232254        1.6212473472       -2.1231507692
 H         -4.1778006296        1.1571324603       -2.9111711670
 H         -5.1970335474        2.5457787343       -2.5238794101
 C         -3.8246176914        1.9750392536       -0.9670396764
 H         -4.2229793340        2.7826994403       -0.3575079902
 H         -2.8841049025        2.3266981539       -1.4008500513
 H         -7.3842010409        1.9232169859        1.1155747171
 H         -5.9577578585        2.6417796752        0.4018801876
 H         -6.2502934801       -0.2220229448        1.4225289813
 H         -5.5086287161        1.0971693686        2.3066009735
 O         -3.9562759197       -0.8458114832        1.5287056165
 C         -2.7510042824       -1.4915700620        1.3376863574
 O         -2.5931412774       -2.4971347917        2.0580276876
 O         -1.3952761073        0.6919349948       -1.2143411046
 C         -0.5602008702       -1.7707849708        0.2424758250
 C          0.5827737459       -1.1048415214        0.9702065981
 C          1.2312282030       -1.7436764485        2.0201863247
 C          2.3021095561       -1.1424074397        2.6592666490
 C          2.7480569912        0.1058408684        2.2636553750
 C          2.1003162102        0.7542759608        1.2204178056
 C          1.0320081193        0.1479582547        0.5775398912
 H          0.5303473850        0.6591856841       -0.2306385042
 N          2.5598609906        2.0198633972        0.7958506826
 S          4.1462902376        2.0410780225        0.2512484101
 O          5.0360077303        2.0450595147        1.3853866451
 O          4.2436340982        3.1787949097       -0.6353896431
 C          4.3181007735        0.5131647629       -0.6529668836
 C          5.0043100606       -0.5437408859       -0.0908270439
 C          5.0542847983       -1.7479540024       -0.7743087466
 C          4.4164100319       -1.8746804377       -1.9981895506
 C          3.7318692712       -0.8027302993       -2.5500959579
 C          3.6767618169        0.4028732112       -1.8706614577
 H          3.1554180368        1.2578583931       -2.2711528782
 H          3.2364246026       -0.9019209933       -3.5028176211
 H          4.4535352921       -2.8145632832       -2.5262594065
 H          5.5852720070       -2.5838675802       -0.3484476438
 H          5.4857508613       -0.4019573546        0.8626515918
 H          1.9544015779        2.4373318243        0.1025241839
 H          3.5860123542        0.5872835317        2.7416273316
 H          2.7954514865       -1.6512929368        3.4731978935
 H          0.8832020216       -2.7146804499        2.3412637844
 H         -0.7476364023       -2.7369529148        0.7291856929
 C         -0.1820813138       -2.0280688734       -1.2046404255
 C          0.7650699769       -3.1451714351       -1.5176364871
 C         -0.6828121323       -3.2638157322       -1.8864801117
 H         -0.9599357962       -3.2006796099       -2.9281102757
 H         -1.3039790449       -3.9354506610       -1.3114042438
 H          1.4870330522       -2.9997955743       -2.3056526767
 H          1.1278562211       -3.7381894652       -0.6920916333
 H         -0.1129727282       -1.1262281607       -1.7977798531
