  62
        -98.94073820
 C         -2.0502267864       -1.3337664850        0.3819369903
 C         -2.5126683680       -0.6333036748       -0.7600123923
 C         -3.7232480738        0.1816884947       -0.5644681041
 C         -4.3022581993        0.2332136646        0.6479259640
 C         -5.5046057966        1.0624347300        0.9926887827
 C         -5.0936745389        2.4497725881        1.5055733427
 C         -4.0693833086        3.1582908047        0.6187423219
 H         -3.8771274277        4.1377901262        1.0622723393
 H         -3.1277685357        2.6044662362        0.6458085800
 C         -4.5082331185        3.3359838936       -0.8415485487
 H         -5.5894619251        3.2165565136       -0.9202932669
 H         -4.2707660880        4.3543626904       -1.1563684527
 C         -3.8208878261        2.3927613676       -1.8308607088
 H         -4.0352408041        2.7473727590       -2.8425885209
 H         -2.7373342686        2.4402189169       -1.6922747784
 C         -4.2519083653        0.9223250301       -1.7603349105
 H         -3.8370414191        0.4144989648       -2.6359958191
 H         -5.3407680538        0.8550713414       -1.8068348687
 H         -5.9904245230        3.0660285231        1.5913291890
 H         -4.6625204849        2.3368907799        2.5031026387
 H         -6.0653790063        0.5475807553        1.7747249285
 H         -6.1358158098        1.1613958652        0.1117934945
 O         -3.8157459772       -0.4327015982        1.7264801754
 C         -2.6721238461       -1.2088917963        1.6266033914
 O         -2.3086252682       -1.7230132085        2.7037141710
 O         -1.9572723839       -0.6759366062       -1.8868799413
 C         -0.7998895973       -2.1965811091        0.3351016806
 C          0.3004914671       -1.4572008140       -0.3864125076
 C          0.9285585686       -1.9267687072       -1.5314837208
 C          1.9172356988       -1.1766514199       -2.1450365995
 C          2.3063937592        0.0454849999       -1.6298555780
 C          1.6957873760        0.5169342625       -0.4739826345
 C          0.7101805082       -0.2382535674        0.1419729983
 H          0.2282137714        0.1339995585        1.0385265637
 N          2.0913625954        1.7511173511        0.0665745219
 S          3.7205247585        2.1246385114        0.1008440207
 O          3.8753412103        3.0283407388        1.2196214684
 O          4.1302733231        2.6396185958       -1.1820060050
 C          4.5578266635        0.5820255847        0.4238493398
 C          5.4929411719        0.1066636002       -0.4727331317
 C          6.1164690338       -1.1033628750       -0.2132252927
 C          5.7926363669       -1.8151128804        0.9311297852
 C          4.8535229051       -1.3224841034        1.8245751466
 C          4.2291353684       -0.1121080854        1.5714294094
 H          3.4985902310        0.2991026079        2.2497924528
 H          4.6028204982       -1.8769956493        2.7147004716
 H          6.2747285792       -2.7591036679        1.1303154493
 H          6.8486792407       -1.4874822549       -0.9049390388
 H          5.7115275736        0.6909478221       -1.3517684859
 H          1.6332746056        1.9938887931        0.9318356609
 H          3.0563158964        0.6508471992       -2.1126384772
 H          2.3857326045       -1.5454931772       -3.0445857432
 H          0.6223502380       -2.8648751748       -1.9633714734
 H         -0.4942117250       -2.3056231597        1.3889749907
 C         -1.0303664367       -3.6049132612       -0.1920306409
 C         -2.3592775735       -4.2795204861       -0.0314716997
 C         -1.8778819382       -3.8873694959       -1.3944602203
 H         -1.5634220596       -4.6703225579       -2.0691429073
 H         -2.3441432609       -3.0489613710       -1.8864609117
 H         -2.3744306977       -5.3269298162        0.2301956166
 H         -3.1608189876       -3.7078331873        0.4139409884
 H         -0.1562463988       -4.2338041841       -0.0542199713
