  62
        -98.94452957
 C         -1.2857199995       -1.7586660265       -0.6738857418
 C         -2.4791595838       -1.6414958947        0.0851484469
 C         -3.4145804100       -0.5906879527       -0.3238789680
 C         -3.1334998552        0.1659008829       -1.3996584286
 C         -3.9665055457        1.3011463985       -1.9279336878
 C         -3.6842260142        2.6332609740       -1.2189297147
 C         -4.2486328612        2.7431354737        0.1982325955
 H         -4.1864688946        3.7946371869        0.4858789729
 H         -5.3039508159        2.4666785534        0.1928634954
 C         -3.4977195860        1.9045828837        1.2424800182
 H         -3.3221467460        2.5100390995        2.1353121538
 H         -2.5130049509        1.6340648815        0.8510206676
 C         -4.2326172443        0.6404295875        1.6917800456
 H         -3.5878677408        0.1039766122        2.3929823934
 H         -5.1477165867        0.9196231578        2.2194115555
 C         -4.5983762738       -0.3229593611        0.5547689466
 H         -4.9077282115       -1.2730903112        0.9973871160
 H         -5.4258586991        0.0788595542       -0.0293871945
 H         -2.6024591532        2.7909229530       -1.1881867916
 H         -4.1218661783        3.4292306084       -1.8264263498
 H         -5.0258438871        1.0566895695       -1.8452376264
 H         -3.7137070149        1.4117832292       -2.9846438218
 O         -2.0228801593       -0.0293741880       -2.1521342250
 C         -1.0354307625       -0.9346274558       -1.7718369423
 O         -0.0321183525       -0.9020049846       -2.5080930515
 O         -2.7397433331       -2.3809492300        1.0727340550
 C         -0.2471412445       -2.7181900398       -0.1189607715
 C          0.4661114418       -2.0566436470        1.0378533006
 C          0.8352782491       -2.7678013288        2.1734315029
 C          1.4636712636       -2.1256148098        3.2265456238
 C          1.7197574566       -0.7671567623        3.1776131783
 C          1.3367052388       -0.0421788231        2.0531052465
 C          0.7368357968       -0.6975585766        0.9891005364
 H          0.4337779868       -0.1275109000        0.1270462993
 N          1.5134174052        1.3419097888        1.9998926956
 S          1.4985234109        2.2466842545        0.6005518098
 O          1.8488759039        3.5754043419        1.0566628593
 O          0.2318158370        2.1253338329       -0.0754245709
 C          2.8442745252        1.6054231622       -0.3778416106
 C          2.6232753183        0.8381391063       -1.5021621208
 C          3.7189249890        0.3561178371       -2.2042830385
 C          5.0041147894        0.6406688491       -1.7733884550
 C          5.2090800223        1.4158040761       -0.6410800499
 C          4.1213528785        1.9030025450        0.0624405360
 H          4.2360008045        2.5254599725        0.9348753160
 H          6.2094480178        1.6404912388       -0.3079469794
 H          5.8491683576        0.2586645123       -2.3240404766
 H          3.5490569313       -0.2440854044       -3.0836471406
 H          1.6184449047        0.6111114922       -1.8241254355
 H          2.0493826848        1.7583180290        2.7443443190
 H          2.1893512508       -0.2646897342        4.0089796743
 H          1.7467006114       -2.6873856819        4.1037227961
 H          0.6039821945       -3.8204888128        2.2410741353
 H         -0.8202089964       -3.5641342684        0.2948190356
 C          0.7106209687       -3.2758479153       -1.1592527208
 C          2.1232525973       -2.8022500573       -1.2981892062
 C          1.8455471749       -4.1692302616       -0.7535689400
 H          2.0675092094       -5.0262390560       -1.3710904040
 H          2.0097173580       -4.3283673488        0.3006711395
 H          2.5220273441       -2.7072024855       -2.2957549193
 H          2.4702412837       -2.0385695836       -0.6186619332
 H          0.1980560748       -3.5303035260       -2.0807111525
