  62
        -98.94408485
 C          1.4663867185        1.1800105374       -0.0065748026
 C          2.5264287590        0.7602006506        0.8256878692
 C          3.0885109050       -0.5732837935        0.5553186498
 C          2.5715994450       -1.3187226645       -0.4398133155
 C          2.8910815016       -2.7278680239       -0.8937167458
 C          4.1833758285       -3.4168027470       -0.4623530337
 C          5.4611650389       -2.7878215092       -1.0163078853
 H          5.4910489956       -2.9541963792       -2.0959359896
 H          6.3144761625       -3.3075111190       -0.5751698269
 C          5.6140825595       -1.2881817401       -0.7752606034
 H          4.8279334891       -0.7492664335       -1.3078457000
 H          6.5688436446       -0.9760225061       -1.2068237627
 C          5.6038720651       -0.8575603685        0.6903035113
 H          5.8922083584        0.1963665475        0.7247772231
 H          6.3508856578       -1.4268930969        1.2466107866
 C          4.2502144598       -0.9882865313        1.4117079780
 H          4.2565364254       -0.3083849827        2.2689805737
 H          4.0996757466       -1.9941265448        1.7979262698
 H          4.1283712952       -4.4417904064       -0.8393791621
 H          4.2305455820       -3.4834989186        0.6206668843
 H          2.8452307746       -2.7057590336       -1.9873024287
 H          2.0428394985       -3.3376614940       -0.5609052014
 O          1.5472656718       -0.8689109040       -1.2201440264
 C          0.9617061019        0.3661650883       -1.0179471617
 O          0.0251255852        0.6270757261       -1.7984831193
 O          2.9781829963        1.4655534111        1.7702139762
 C          0.8118905063        2.5260443522        0.2387207851
 C         -0.6701375935        2.3526838195        0.4643782745
 C         -1.6215494478        3.2436880995       -0.0176568527
 C         -2.9698656752        3.0231650886        0.2057894755
 C         -3.3996284217        1.9013558328        0.8907153899
 C         -2.4550734989        1.0099209971        1.3848817172
 C         -1.1056618354        1.2549917465        1.1958566345
 H         -0.3881681767        0.5495501142        1.5896046605
 N         -2.8330859445       -0.1709844918        2.0621992385
 S         -2.4928130086       -1.6050206259        1.2574613236
 O         -3.0560164090       -2.6467168451        2.0908310846
 O         -1.0811685903       -1.6975963552        0.9899572848
 C         -3.4405710742       -1.4776048089       -0.2487454092
 C         -2.9414396078       -0.7496585639       -1.3100718255
 C         -3.7389241223       -0.5832379985       -2.4330235179
 C         -5.0082506574       -1.1382568158       -2.4751153742
 C         -5.4928157438       -1.8680768717       -1.3996505279
 C         -4.7055236911       -2.0348013559       -0.2725446589
 H         -5.0370854289       -2.5949417838        0.5870179474
 H         -6.4791103670       -2.3020690237       -1.4345338740
 H         -5.6219006926       -1.0013977573       -3.3515536244
 H         -3.3541377728       -0.0148860792       -3.2645838752
 H         -1.9477542068       -0.3303327894       -1.2630021435
 H         -3.8057412225       -0.1809882876        2.3402846921
 H         -4.4520393343        1.7126187704        1.0407263155
 H         -3.6959746073        3.7241076459       -0.1763536937
 H         -1.3061043300        4.1104327712       -0.5752394877
 H          1.2630491740        2.9086914361        1.1669685947
 C          1.1364886000        3.4824254304       -0.8914170039
 C          1.2822620144        4.9511507673       -0.6296434457
 C          2.4921643482        4.1196916534       -0.9286951707
 H          2.9808840553        4.2385425773       -1.8840554009
 H          3.1684118005        3.8862708226       -0.1191827347
 H          0.9423197001        5.6452980030       -1.3834213940
 H          1.1448022210        5.2952525707        0.3842736887
 H          0.7053771781        3.1679242555       -1.8355033400
