  62
        -98.93834731
 C         -1.7408095990       -0.5615526359        0.1019969126
 C         -2.9220984158       -1.0697863556        0.6869670986
 C         -4.1949269456       -0.7477181966        0.0128586116
 C         -4.1614223633        0.0004662746       -1.1057893409
 C         -5.3202117595        0.4870733637       -1.9351370434
 C         -6.0652651428        1.6620323387       -1.2812379052
 C         -6.3343627761        1.5013516469        0.2126790558
 H         -5.3857970025        1.3599015075        0.7338353436
 H         -6.7657396467        2.4384955736        0.5744585867
 C         -7.2923053055        0.3719256633        0.5841393565
 H         -7.4623630964        0.4327566764        1.6621274703
 H         -8.2508563279        0.5377343775        0.0874365723
 C         -6.8145078275       -1.0448552355        0.2585744287
 H         -6.9311444753       -1.2655697011       -0.7989894061
 H         -7.4683877350       -1.7394330401        0.7939872952
 C         -5.3901147766       -1.3554968481        0.7073062013
 H         -5.2846573089       -1.1007753361        1.7680366945
 H         -5.2378935928       -2.4403906319        0.6564531536
 H         -5.4593938178        2.5616497378       -1.4152519440
 H         -7.0085083793        1.8091161491       -1.8100119629
 H         -4.9031714595        0.8266049453       -2.8858590184
 H         -5.9994208878       -0.3335412886       -2.1461970326
 O         -2.9945687636        0.4715295382       -1.6342064016
 C         -1.7643719601        0.2090762660       -1.0591423320
 O         -0.7941114947        0.7042670187       -1.6639490767
 H          2.2081079444       -0.1368347041        0.2373994232
 C          1.6542381510        0.6115819434        0.7782401754
 C          0.3231527594        0.4003543811        1.1022524695
 C         -0.3561248845        1.3916897145        1.8068650763
 C          0.2745663907        2.5687362296        2.1571721683
 C          1.5981130078        2.7834218643        1.8137159973
 C          2.2900367969        1.7976749968        1.1219888864
 N          3.6464720183        1.9657338195        0.8084618382
 S          4.2658159327        1.4383698194       -0.6546953185
 O          5.5164443074        2.1583136277       -0.7841869322
 O          3.3277368569        1.6024930769       -1.7390894415
 C          4.6314800785       -0.2848787180       -0.3979390271
 C          5.2722225423       -0.6645482488        0.7650907877
 C          5.5983172980       -1.9994012804        0.9433617295
 C          5.2892655186       -2.9252897847       -0.0416644378
 C          4.6489783959       -2.5271608988       -1.2054658940
 C          4.3153272173       -1.1938394908       -1.3878140356
 H          3.8042255427       -0.8416775988       -2.2702926483
 H          4.4071545323       -3.2475941486       -1.9710763900
 H          5.5453075251       -3.9637170192        0.0979145068
 H          6.0933952515       -2.3142090562        1.8477108456
 H          5.4997594679        0.0834510020        1.5057365873
 H          4.0326390634        2.8622360578        1.0670452373
 H          2.0908793047        3.7065473968        2.0790070334
 H         -0.2681265766        3.3301572978        2.6971624095
 H         -1.3918359086        1.2263069946        2.0711280615
 C         -0.4061001240       -0.8725417744        0.7529497758
 H         -0.6576095219       -1.3892320449        1.6917194786
 C          0.3999391349       -1.8153394884       -0.1153325679
 C          1.3540567680       -2.7836437313        0.5159419121
 C          0.0741836732       -3.2776359421       -0.0864703476
 H          0.1167768767       -3.8326666413       -1.0114711715
 H         -0.7182353275       -3.5936420968        0.5762195537
 H          2.2806009716       -3.0012974546        0.0069746879
 H          1.4341029689       -2.7711911235        1.5922218719
 H          0.6638115308       -1.3785917808       -1.0729458453
 O         -2.9220667131       -1.7623354730        1.7409557701
