  62
        -98.93962498
 C          2.3869684343        1.2770542088        0.0097136707
 C          3.0822058589        0.4802460227        0.9470986419
 C          3.7893642990       -0.6984499288        0.4186963198
 C          3.7160299622       -0.9775871498       -0.8964262913
 C          4.3563750513       -2.0795079516       -1.7145329010
 C          4.9309172894       -3.3223418031       -1.0389650259
 C          3.8980732207       -4.2152532563       -0.3527099510
 H          3.2652057824       -4.6705028259       -1.1188071692
 H          4.4301353060       -5.0192232700        0.1605630967
 C          2.9787613722       -3.5148343464        0.6452038017
 H          2.3494780455       -2.7919211103        0.1198842539
 H          2.3085972660       -4.2686792060        1.0684121834
 C          3.6857409822       -2.8148948565        1.8050568447
 H          4.3511351203       -3.5197111071        2.3069757567
 H          2.9176269265       -2.5123706737        2.5222327486
 C          4.4909308275       -1.5571890080        1.4311692278
 H          5.4904893646       -1.8135573987        1.0889967332
 H          4.5978377998       -0.9457079482        2.3318331882
 H          5.7150496452       -3.0448517441       -0.3408096064
 H          5.4034846666       -3.9130745133       -1.8283377717
 H          3.5962118997       -2.3859255977       -2.4403351818
 H          5.1555099985       -1.5985150413       -2.2894514691
 O          3.0160896492       -0.1870892911       -1.7617690782
 C          2.3254846691        0.9383308647       -1.3408891278
 O          1.7162666381        1.5341386487       -2.2483631499
 O          3.1111855225        0.7394781223        2.1813964664
 C          1.6144194159        2.4892467343        0.5004005947
 C          0.1411266672        2.2527577478        0.2735970922
 C         -0.6855181892        3.1197482367       -0.4269856148
 C         -2.0186081344        2.8040317294       -0.6295698992
 C         -2.5556812941        1.6296956512       -0.1357950533
 C         -1.7388120952        0.7587518415        0.5741541690
 C         -0.4067111887        1.0784221144        0.7772082758
 H          0.2307359736        0.3952124489        1.3260339160
 N         -2.2769986987       -0.4378417225        1.0883228624
 S         -3.0029953863       -1.4775619273       -0.0169373231
 O         -2.9128218954       -2.7908638885        0.5844336970
 O         -2.4311771746       -1.3341240088       -1.3363380693
 C         -4.7059604664       -0.9589873636       -0.0226219052
 C         -5.3089884586       -0.5865987627       -1.2078159904
 C         -6.6374629904       -0.1904818612       -1.1874400542
 C         -7.3346889208       -0.1745480908        0.0108542016
 C         -6.7145372702       -0.5536744751        1.1922937699
 C         -5.3875099488       -0.9521591981        1.1788366796
 H         -4.8688433941       -1.2578342330        2.0720620641
 H         -7.2599796236       -0.5397028404        2.1220603421
 H         -8.3676523727        0.1354063325        0.0238770554
 H         -7.1208610251        0.1043812788       -2.1049307845
 H         -4.7238781221       -0.6083440777       -2.1135193554
 H         -1.6213839095       -0.9522317808        1.6600171784
 H         -3.5910777063        1.3785976056       -0.2987185128
 H         -2.6479938026        3.4829569833       -1.1843580349
 H         -0.2838311416        4.0354097813       -0.8280941309
 H          1.7911688072        2.5280267589        1.5854649002
 C          2.1390881602        3.7622481121       -0.1262400441
 C          1.9553318112        5.0736338824        0.5757822297
 C          3.3145778859        4.4477809186        0.5010853317
 H          4.0555192496        4.8937437755       -0.1451657662
 H          3.7266957511        4.0068533893        1.3970688006
 H          1.7645086643        5.9542254867       -0.0185354642
 H          1.4443758589        5.0630777462        1.5265107870
 H          2.0892368611        3.7463400163       -1.2089148364
