  62
        -98.94725611
 C         -0.9432694498       -1.5493239973       -0.8718540636
 C         -2.2483040902       -1.5205407889       -0.3152232645
 C         -3.0412590703       -0.3143133785       -0.5665508124
 C         -2.5159097400        0.6839532233       -1.2982493297
 C         -3.1784089501        1.9966096539       -1.6161944172
 C         -3.0305874512        3.0368095113       -0.4968900447
 C         -3.9090964421        2.7950998383        0.7312005041
 H         -3.8952037528        3.7147124370        1.3198775462
 H         -4.9393189518        2.6237299188        0.4159066129
 C         -3.4383163325        1.6374440464        1.6230569418
 H         -2.3928105223        1.4062865671        1.4015855821
 H         -3.4723249834        1.9507926040        2.6697294825
 C         -4.2756721921        0.3629146664        1.5085447882
 H         -5.2841212125        0.5538440853        1.8841238779
 H         -3.8179470424       -0.4011001449        2.1423649168
 C         -4.3851299109       -0.2045519103        0.0877071868
 H         -4.8052603707       -1.2114648606        0.1546422242
 H         -5.0512957306        0.4138048809       -0.5139175023
 H         -1.9841937115        3.0696311709       -0.1808164238
 H         -3.2863970112        4.0126657122       -0.9172001927
 H         -2.6944589595        2.3826468660       -2.5160362859
 H         -4.2356262099        1.8374839041       -1.8306021684
 O         -1.2844804596        0.6014417949       -1.8593782889
 C         -0.4517972495       -0.4863836554       -1.6302115708
 O          0.6660973609       -0.3680146039       -2.1703236996
 O         -2.7281320805       -2.4679626006        0.3654876529
 C         -0.0736324398       -2.7318554480       -0.4776041256
 C          0.6572673691       -2.3841593807        0.7997096058
 C          0.6596552285       -3.2368575232        1.8967759938
 C          1.2676134375       -2.8556435658        3.0805330051
 C          1.8454932470       -1.6047293659        3.2064377285
 C          1.8493822477       -0.7473733834        2.1124260304
 C          1.2990391787       -1.1597307308        0.9100599091
 H          1.3299723192       -0.4915618289        0.0652660606
 N          2.3842803273        0.5477700865        2.1862384738
 S          1.5756466276        1.7847265782        1.3867123760
 O          1.9434865367        2.9819952566        2.1188121890
 O          0.1570670078        1.5278749680        1.2926474043
 C          2.3224368088        1.8769474320       -0.2243490232
 C          1.5824744795        2.4103988742       -1.2590521726
 C          2.1714391204        2.5472378772       -2.5050732018
 C          3.4852499007        2.1506665680       -2.6927123917
 C          4.2162431000        1.6179685358       -1.6422643123
 C          3.6339608891        1.4817325128       -0.3927673131
 H          4.1704447085        1.0638778010        0.4429989264
 H          5.2366093002        1.3039214764       -1.7940621223
 H          3.9389842514        2.2515754503       -3.6661914311
 H          1.5973189210        2.9501805690       -3.3239415013
 H          0.5553570093        2.6874389236       -1.0792501627
 H          2.6886506565        0.8365026345        3.1048532247
 H          2.2787147162       -1.2887878980        4.1432260595
 H          1.2639596370       -3.5271458277        3.9256947636
 H          0.1604059788       -4.1918508832        1.8275330612
 H         -0.7706539898       -3.5504796987       -0.2504735380
 C          0.8929315311       -3.2036811553       -1.5438474859
 C          1.3828530915       -4.6193841753       -1.5064333688
 C          0.4272662222       -4.1846546030       -2.5759281185
 H          0.7910586529       -4.0771852906       -3.5864036180
 H         -0.5962329078       -4.5251611134       -2.5150387501
 H          2.4076459017       -4.8151140244       -1.7813093684
 H          1.0070450210       -5.2607775871       -0.7238589206
 H          1.5857849312       -2.4367056844       -1.8634218736
