  62
        -98.93674910
 C          2.3581424282        1.2887571307       -0.0927447885
 C          3.1296170777        0.5909585864        0.8652396857
 C          3.9892205360       -0.4841699885        0.3478041699
 C          3.9904000341       -0.7422591814       -0.9730302314
 C          4.7464638110       -1.8548650252       -1.6421464930
 C          4.0139467249       -3.1943836901       -1.4244419538
 C          4.7860539841       -4.2053820721       -0.5762775633
 H          4.0933879658       -5.0075500523       -0.3124650375
 H          5.5813851282       -4.6432254713       -1.1829525349
 C          5.4232475986       -3.6560474197        0.7038262991
 H          5.6960726808       -4.5171064616        1.3176600225
 H          6.3534832982       -3.1411291224        0.4595711128
 C          4.5471707432       -2.7144182158        1.5403123252
 H          3.4898610165       -2.9004165291        1.3484240182
 H          4.7208512962       -2.9366435139        2.5952920772
 C          4.8462094726       -1.2160830032        1.3435444837
 H          4.6753838683       -0.6992463815        2.2926982842
 H          5.9003563729       -1.0856031455        1.0840300568
 H          3.7990083032       -3.6528573112       -2.3907802712
 H          3.0497149672       -2.9852360064       -0.9558116562
 H          4.7976149951       -1.6186501681       -2.7050741159
 H          5.7582116024       -1.9025676727       -1.2457770582
 O          3.2247719361       -0.0571631337       -1.8612656176
 C          2.3868789292        0.9695183578       -1.4502303900
 O          1.7370933925        1.5015659741       -2.3683750035
 H          0.2087143168        0.0964479143        0.8028612844
 C         -0.4666665041        0.8140753078        0.3516470608
 C          0.0071267495        2.0839121853        0.0436136934
 C         -0.8751156874        2.9984910473       -0.5156900447
 C         -2.1859377208        2.6379895688       -0.7779129292
 C         -2.6462132604        1.3673599520       -0.4875864923
 C         -1.7770619469        0.4486161207        0.0867155780
 N         -2.2338740248       -0.8489613484        0.3813278646
 S         -3.6272831828       -0.9996127457        1.3091862804
 O         -3.7985354739        0.1312702470        2.1916176131
 O         -3.5210613998       -2.2972693983        1.9400958264
 C         -4.9409464392       -1.0431847457        0.1088542191
 C         -4.9017510280       -2.0234015646       -0.8632897200
 C         -5.9202216172       -2.0759608730       -1.8013698600
 C         -6.9559461621       -1.1547745619       -1.7498680888
 C         -6.9825772377       -0.1790603533       -0.7652049510
 C         -5.9661195917       -0.1201388208        0.1756189995
 H         -5.9417708671        0.6233389580        0.9563101673
 H         -7.7887663125        0.5357171033       -0.7266878221
 H         -7.7471405769       -1.1982445577       -2.4815874175
 H         -5.9027491712       -2.8332368467       -2.5685717809
 H         -4.0816683026       -2.7220180968       -0.8656525956
 H         -1.5118371790       -1.4587132317        0.7371096326
 H         -3.6636183255        1.0811566667       -0.6981860044
 H         -2.8579230926        3.3576243721       -1.2198991051
 H         -0.5358798846        3.9936028857       -0.7513348797
 C          1.4446419966        2.4083733552        0.3705275906
 H          1.5437439651        2.4315694225        1.4666453141
 C          1.9105674781        3.7369748585       -0.1866877732
 C          1.6627999546        5.0043315349        0.5739060806
 C          3.0487233809        4.4418617578        0.4862859655
 H          3.7764006889        4.9501368087       -0.1282760855
 H          3.4699972589        3.9754007182        1.3650621131
 H          1.4408676714        5.9037112757        0.0196206100
 H          1.1441538816        4.9276700824        1.5176733954
 H          1.8714869103        3.7699760754       -1.2695718734
 O          3.0968677143        0.8519028217        2.0996517692
