  62
        -98.93737590
 C          2.5923709731        0.3712043192       -0.0912510403
 C          2.1368115204        1.3865284374       -0.9626623040
 C          1.4766040259        2.5458639902       -0.3417681598
 C          1.3252838762        2.5775701541        0.9935553835
 C          0.7340974060        3.6625507025        1.8610029482
 C         -0.5043775916        4.4067463198        1.3518581432
 C         -1.5241614826        3.5328220767        0.6076845204
 H         -1.2830242799        2.4756875119        0.7417723409
 H         -2.5134477372        3.6980071321        1.0399518516
 C         -1.6014276436        3.8506452581       -0.8873980212
 H         -2.5548304411        3.4848945402       -1.2767425240
 H         -1.5861143322        4.9344951841       -1.0234410718
 C         -0.4952159840        3.2230523328       -1.7317514508
 H         -0.5944096725        2.1337330632       -1.7054287479
 H         -0.6356525956        3.5382788009       -2.7687518825
 C          0.9387488056        3.5730181039       -1.2972118216
 H          0.9915386757        4.5768681625       -0.8832833184
 H          1.5827530574        3.5267541883       -2.1797650974
 H         -0.9785902627        4.8534155193        2.2279343489
 H         -0.1978002970        5.2296001889        0.7073689176
 H          0.4949372590        3.1656286446        2.8049020156
 H          1.5250231280        4.3895537238        2.0723267986
 O          1.7762021532        1.5725567049        1.7973732106
 C          2.3674807814        0.4330395789        1.2832625976
 O          2.6599779822       -0.4241579138        2.1401601255
 O          2.2752149028        1.3266578451       -2.2161475644
 C          3.1699971397       -0.9040139795       -0.6873418702
 C          2.1534812918       -1.9908581274       -0.4356360370
 C          2.4070163485       -3.1697900730        0.2511379142
 C          1.3711829238       -4.0353163412        0.5650772638
 C          0.0649145847       -3.7385922749        0.2189414234
 C         -0.1891282371       -2.5792501660       -0.4984820087
 C          0.8491864734       -1.7336738066       -0.8405036012
 H          0.6356555171       -0.8203761669       -1.3825435887
 N         -1.5380113598       -2.2049644786       -0.7842695916
 S         -2.0620404909       -1.1889970059        0.4752610571
 O         -1.3254864900        0.0564445782        0.4584082875
 O         -2.0116651510       -1.9518664303        1.6966612209
 C         -3.7596343326       -0.8996291329        0.0117708928
 C         -4.6529549759       -1.9484217984        0.1176072448
 C         -5.9687032912       -1.7473879070       -0.2669682921
 C         -6.3661797100       -0.5086325955       -0.7487917359
 C         -5.4576953238        0.5338819011       -0.8488907700
 C         -4.1390518062        0.3386275468       -0.4677982887
 H         -3.3978094400        1.1202743260       -0.5230814948
 H         -5.7693642704        1.4963313257       -1.2216267892
 H         -7.3911672351       -0.3539097198       -1.0465800765
 H         -6.6787192177       -2.5548938113       -0.1898751320
 H         -4.2981214978       -2.8889921229        0.5044028757
 H         -1.5768298750       -1.6515458192       -1.6330282790
 H         -0.7550995464       -4.3738824699        0.5102151119
 H          1.5830538286       -4.9397802178        1.1149448543
 H          3.4115371639       -3.3977924657        0.5686690655
 H          3.2309755951       -0.7225271293       -1.7703615037
 C          4.5516024260       -1.2100595540       -0.1572984728
 C          5.4789656841       -2.0793974202       -0.9518952294
 C          5.7429522211       -0.6089533881       -0.8389247450
 H          6.5697805720       -0.2765588203       -0.2297100877
 H          5.5599896082        0.0126482955       -1.7031747107
 H          6.1289992046       -2.7586620275       -0.4218537655
 H          5.1197626184       -2.4583692451       -1.8966278679
 H          4.5773861985       -1.2833849935        0.9236679653
