  62
        -98.94585736
 C         -2.0768634292       -1.0615112102       -0.4678088511
 C         -1.0982677200       -1.4771025204       -1.4069616585
 C         -0.2710230964       -2.6267253868       -1.0308322360
 C         -0.4404811958       -3.1942397795        0.1768434973
 C          0.3279157434       -4.3676035417        0.7214324963
 C          1.6797196228       -3.9820380449        1.3379066779
 C          2.7783642782       -3.6446568031        0.3291521347
 H          3.7225734511       -3.6328099912        0.8773220758
 H          2.8422953096       -4.4377911742       -0.4172400897
 C          2.5982593506       -2.2884415384       -0.3669900577
 H          1.9045792561       -1.6741957544        0.2127889893
 H          3.5531688347       -1.7559785335       -0.3785325341
 C          2.1132829888       -2.3765220745       -1.8137650386
 H          2.8668818073       -2.8855077739       -2.4192746753
 H          2.0040050937       -1.3597328241       -2.1952719357
 C          0.7737395518       -3.1013267503       -1.9967939238
 H          0.4079888282       -2.8916344598       -3.0053021528
 H          0.9134306394       -4.1776039651       -1.8933276645
 H          1.5282174070       -3.1289985524        2.0049124366
 H          2.0163972451       -4.8263760419        1.9445328396
 H         -0.2942377161       -4.8108904412        1.5020841812
 H          0.4808600343       -5.1078770746       -0.0648662424
 O         -1.3754576024       -2.7617166929        1.0588779042
 C         -2.1964225096       -1.6732590934        0.7817136766
 O         -2.9744445154       -1.3932634900        1.7121719133
 H         -1.2899488245        0.6688381370        1.2574110371
 C         -1.2954955578        1.4825364119        0.5487720182
 C         -2.0863011699        1.4072902792       -0.5883128692
 C         -2.0732149226        2.4749265314       -1.4787355890
 C         -1.2852276371        3.5861565076       -1.2337404214
 C         -0.4577869944        3.6322399469       -0.1253973550
 C         -0.4540896993        2.5632343235        0.7623182208
 N          0.4328440098        2.5070329449        1.8592020160
 S          1.5696588125        1.2714983531        1.7794982969
 O          0.9157697069       -0.0100722453        1.8043368538
 O          2.4955749900        1.5430084821        2.8574429765
 C          2.3772636488        1.5429206846        0.2119725469
 C          1.7476740732        1.1435986373       -0.9501287887
 C          2.3370595521        1.4469612674       -2.1677422472
 C          3.5407337852        2.1333377936       -2.2038048094
 C          4.1637033141        2.5222869887       -1.0272677570
 C          3.5738345522        2.2334676366        0.1925067849
 H          4.0184356582        2.5182498244        1.1324879376
 H          5.1016212239        3.0530015293       -1.0569927444
 H          3.9941410804        2.3643062124       -3.1546941577
 H          1.8419663179        1.1421795486       -3.0765177051
 H          0.8172658924        0.5996567889       -0.8994158327
 H          0.9091406728        3.3801729209        2.0425288718
 H          0.1891653841        4.4792591074        0.0457998670
 H         -1.2907791744        4.4115361343       -1.9287154220
 H         -2.6693479755        2.4211727358       -2.3775735438
 C         -2.8942002115        0.1606234404       -0.8546693105
 H         -3.0276398403        0.0885061635       -1.9468195626
 C         -4.2777100155        0.2103802278       -0.2270520576
 C         -4.6164605022        1.1106830683        0.9190621274
 C         -5.1679989710        1.3984951917       -0.4431640835
 H         -6.2185231377        1.2264395300       -0.6213324002
 H         -4.7596557019        2.2428409410       -0.9767111492
 H         -5.2723890720        0.7230132074        1.6831153460
 H         -3.8383689341        1.7513272618        1.3052595181
 H         -4.7558649112       -0.7634148713       -0.2274678239
 O         -0.9325722518       -0.9078086128       -2.5205290355
