  62
        -98.93920653
 C         -2.2419796942       -0.8295312775       -0.0220493098
 C         -3.2160584847       -0.7369563934        1.0022351333
 C         -4.1023530091        0.4384117897        0.9697609474
 C         -3.9198767306        1.3642155140        0.0123594032
 C         -4.7326742858        2.6059519273       -0.2298593729
 C         -5.8473558071        2.3351348512       -1.2548493630
 C         -7.1514350776        1.8016998699       -0.6629808570
 H         -7.6457619646        2.6009461328       -0.1068229806
 H         -7.8015064657        1.5338430614       -1.4990558413
 C         -7.0040221088        0.5853511230        0.2547762872
 H         -6.2981245902       -0.1223400265       -0.1836286124
 H         -7.9731940191        0.0854899100        0.3060176624
 C         -6.5588549519        0.9534573590        1.6779469790
 H         -6.6499287472        2.0310627255        1.8124642318
 H         -7.2371613746        0.4932365312        2.3993042897
 C         -5.1403402535        0.5038688581        2.0569939449
 H         -4.7637373171        1.1478133611        2.8588124668
 H         -5.1770889969       -0.5110138266        2.4651704589
 H         -6.0705768595        3.2645089298       -1.7827593226
 H         -5.4593706135        1.6267388654       -1.9914217862
 H         -4.0483416444        3.3478342725       -0.6470796390
 H         -5.1385778629        2.9893310786        0.7015137579
 O         -2.9523688070        1.2518151314       -0.9383624531
 C         -2.0960980565        0.1649584073       -0.9886608131
 O         -1.2790163049        0.2102323309       -1.9294415875
 O         -3.3473980455       -1.6082651504        1.9030746481
 C         -1.3138841940       -2.0338597167       -0.0128194669
 C          0.0627210489       -1.5657213212        0.3891397225
 C          0.3781809303       -1.4494035205        1.7400874724
 C          1.6079713964       -0.9592579140        2.1372941583
 C          2.5449971334       -0.5647449470        1.1977142309
 C          2.2319634559       -0.6584883122       -0.1511573684
 C          1.0054484868       -1.1744012853       -0.5486692938
 H          0.7698693793       -1.2279167170       -1.5997019322
 N          3.1692014691       -0.2471226339       -1.1146718267
 S          3.9332132341        1.2315066795       -0.8968900308
 O          3.1195759504        2.1545511135       -0.1393931320
 O          4.3244650289        1.6557884475       -2.2236645465
 C          5.3983942354        0.8070917055        0.0243617105
 C          6.2124204146       -0.1914254717       -0.4739131704
 C          7.3597198761       -0.5308970390        0.2249133891
 C          7.6741007000        0.1319256058        1.4020612935
 C          6.8490986147        1.1350049864        1.8870199274
 C          5.6991774371        1.4787710611        1.1929794871
 H          5.0246833280        2.2476852156        1.5353114873
 H          7.0949912814        1.6499591041        2.8018286000
 H          8.5671511843       -0.1347535028        1.9448935812
 H          8.0035713497       -1.3104066035       -0.1494187674
 H          5.9331585876       -0.6797933171       -1.3924345318
 H          2.8277428319       -0.3313797592       -2.0617302863
 H          3.5010413210       -0.1697274593        1.5000268878
 H          1.8403421109       -0.8793063699        3.1883752118
 H         -0.3619207110       -1.7342922261        2.4747097759
 H         -1.6965034234       -2.6864924135        0.7831223886
 C         -1.3425742657       -2.7951773667       -1.3215307469
 C         -0.7593867807       -4.1746814109       -1.3758567585
 C         -2.2434250375       -3.9846558561       -1.4565426872
 H         -2.7356233843       -4.1520180020       -2.4029343413
 H         -2.8415818169       -4.2580843951       -0.5997563774
 H         -0.2299978567       -4.4762519194       -2.2666225049
 H         -0.3485380153       -4.5757091813       -0.4618405310
 H         -1.2303366978       -2.1618603897       -2.1929393574
