  62
        -98.94072591
 C          2.6425248859        0.1155524477       -0.1788211121
 C          2.5353167416        1.3119382471       -0.9316756150
 C          1.9523928585        2.4655210379       -0.2408639201
 C          1.5575344094        2.3438195468        1.0392201235
 C          0.9018008846        3.4135993077        1.8685415457
 C         -0.6154899905        3.4950099121        1.6464901725
 C         -1.0416747522        4.1429095062        0.3277215861
 H         -2.1076279916        4.3648168212        0.4105668261
 H         -0.5191697173        5.0922903156        0.2023181276
 C         -0.8165016029        3.2581774483       -0.9067513078
 H         -0.6916464724        2.2210628650       -0.5837792408
 H         -1.7030649921        3.2928998204       -1.5456156878
 C          0.3742904225        3.6668934981       -1.7750497171
 H          0.4668918380        2.9453257973       -2.5911071033
 H          0.1853900013        4.6493151269       -2.2142399779
 C          1.7174568960        3.7154314515       -1.0353286463
 H          1.7590654947        4.5898505423       -0.3865267091
 H          2.5143346750        3.7914615553       -1.7795472973
 H         -1.0250342591        2.4825730121        1.7026891691
 H         -1.0377420222        4.0762517125        2.4697966576
 H          1.3599349491        4.3813575332        1.6614792599
 H          1.0849092072        3.1551285339        2.9136924439
 O          1.7181475572        1.1953715726        1.7443715182
 C          2.1889042878        0.0385106420        1.1414609259
 O          2.1732230856       -0.9577468512        1.8890098689
 O          2.8861421344        1.4019599902       -2.1402013057
 C          3.0423333919       -1.1481785582       -0.9276087649
 C          1.9282012519       -2.1441544885       -0.7245504990
 C          2.0779290967       -3.4021824810       -0.1593269091
 C          0.9670402815       -4.1838533282        0.1147133251
 C         -0.3107816874       -3.7240141991       -0.1490857065
 C         -0.4648815488       -2.4780922284       -0.7385414300
 C          0.6456196585       -1.7148148840       -1.0449187143
 H          0.5124917793       -0.7318739339       -1.4829620120
 N         -1.7752651862       -1.9467081225       -0.9359777247
 S         -2.1982119249       -1.0539427542        0.4477677246
 O         -1.3601402984        0.1197743277        0.5650728736
 O         -2.2092391983       -1.9599263482        1.5675510768
 C         -3.8668839213       -0.5663865616        0.0485852947
 C         -4.1427884123        0.7507681416       -0.2617682859
 C         -5.4415139604        1.1020961776       -0.5966870535
 C         -6.4339198618        0.1342857994       -0.6192944832
 C         -6.1402136516       -1.1850594611       -0.3065840757
 C         -4.8448200547       -1.5423068570        0.0308286849
 H         -4.5690140956       -2.5512976630        0.2879606041
 H         -6.9151494476       -1.9342330575       -0.3247308443
 H         -7.4431379480        0.4103499989       -0.8811817194
 H         -5.6718859783        2.1272214011       -0.8383603352
 H         -3.3391257510        1.4693818044       -0.2275927523
 H         -1.7748905566       -1.2889477819       -1.7077049211
 H         -1.1838805205       -4.2978212451        0.1146978232
 H          1.0991111158       -5.1531192557        0.5712567793
 H          3.0613766912       -3.7540784654        0.1073624652
 H          3.0407265187       -0.8412536804       -1.9876610709
 C          4.4317724771       -1.6900568676       -0.6434478063
 C          5.5293449510       -0.7774720479       -0.1857948417
 C          4.9907298518       -1.8246622805        0.7398699150
 H          5.6117237166       -2.6821949697        0.9551397256
 H          4.3668489120       -1.5178343981        1.5637334420
 H          6.5173404660       -0.9109446598       -0.6000685930
 H          5.2689536183        0.2534864426        0.0066621514
 H          4.7143699822       -2.4598261813       -1.3555171728
