  62
        -98.94234812
 C          1.3297798257        1.3331125119       -0.5519576791
 C          1.5115356913       -0.0583675170       -0.7459018935
 C          2.5879716655       -0.6795537297        0.0468915623
 C          3.2843767989        0.0610011912        0.9254384032
 C          4.4179530238       -0.4426615808        1.7705118496
 C          5.7677774760       -0.2616554164        1.0622645165
 C          5.7830731549       -0.7757601448       -0.3771613488
 H          5.1097002243       -0.1624348986       -0.9801068731
 H          6.7922983539       -0.6243508532       -0.7660091210
 C          5.3929816654       -2.2527536724       -0.5267795277
 H          6.0960912365       -2.7334090520       -1.2102740860
 H          5.4797738421       -2.7581003036        0.4357937240
 C          3.9913861878       -2.4835335499       -1.0942424451
 H          3.9025244818       -3.5402620303       -1.3599806952
 H          3.8681802057       -1.9028611825       -2.0117563968
 C          2.8261439270       -2.1500603345       -0.1539348964
 H          1.9112545032       -2.5427949567       -0.6076829643
 H          2.9680604070       -2.6500581067        0.8068664795
 H          6.5340475797       -0.7774781544        1.6438398336
 H          6.0102719525        0.8034642556        1.0487795409
 H          4.2516151479       -1.4936295475        2.0002615877
 H          4.4264958708        0.1239278959        2.7034897350
 O          3.0591963621        1.3871579820        1.1119145306
 C          2.0849718277        2.0469100949        0.3824654514
 O          1.9889694545        3.2637499824        0.6438342885
 O          0.8344765996       -0.7666011109       -1.5322533905
 C          0.2578299985        2.1589678013       -1.2486429678
 C         -0.9194389734        2.3332250140       -0.3220507017
 C         -1.4992066576        3.5787304864       -0.1169728474
 C         -2.5576872569        3.7205883980        0.7632516871
 C         -3.0549964484        2.6282820669        1.4494232805
 C         -2.4838488162        1.3746633992        1.2476363295
 C         -1.4291770485        1.2357700079        0.3577612398
 H         -0.9709832376        0.2698385374        0.2212366976
 N         -2.9837368791        0.2585869470        1.9165211343
 S         -2.3582395347       -1.2788447504        1.8309097523
 O         -3.1429336145       -2.0144885754        2.8010060901
 O         -0.9287587424       -1.2984851569        2.0341355170
 C         -2.7984124960       -1.8180564823        0.1931934659
 C         -4.1391399656       -1.8009218649       -0.1421731530
 C         -4.5179310572       -2.2040118601       -1.4113217158
 C         -3.5545787450       -2.6161777149       -2.3207883038
 C         -2.2155127115       -2.6328547885       -1.9666063707
 C         -1.8304820123       -2.2323970910       -0.6964437449
 H         -0.7927418348       -2.2115850692       -0.4042936884
 H         -1.4583636440       -2.9413565197       -2.6692065390
 H         -3.8490244248       -2.9248607645       -3.3115222384
 H         -5.5593491803       -2.1929448924       -1.6899052767
 H         -4.8569581869       -1.4795081714        0.5942315425
 H         -3.6598875707        0.4131190421        2.6457263297
 H         -3.8717585361        2.7409338882        2.1454447851
 H         -2.9954041876        4.6941838812        0.9235043105
 H         -1.0990042570        4.4406164848       -0.6301451232
 H          0.7039218908        3.1563204581       -1.3983537591
 C         -0.1456138357        1.6344347036       -2.6180694321
 C         -1.4258397291        0.9043009285       -2.8764758217
 C         -1.2518700719        2.3043156922       -3.3788120257
 H         -1.1256021353        2.4637174113       -4.4388759360
 H         -1.7994014384        3.0863288059       -2.8747742379
 H         -1.3990237895        0.0875850126       -3.5807457158
 H         -2.0952177552        0.7350666964       -2.0470814470
 H          0.7141972957        1.3111723537       -3.1946625455
