  62
        -98.94113137
 C         -1.6604709526       -1.3484463761        0.3542722685
 C         -1.3916607356       -0.3060111292       -0.5621814905
 C         -2.0857503130        0.9712273155       -0.3301963242
 C         -2.8738530130        1.1077985295        0.7516699713
 C         -3.6421058145        2.3021901756        1.2779637559
 C         -3.9250203196        3.5059246430        0.3826159626
 C         -4.8588494228        3.2259754956       -0.7936547180
 H         -5.8562675761        3.0096743209       -0.4028943137
 H         -4.9264524185        4.1345564599       -1.3959769005
 C         -4.4502592885        2.0626003253       -1.6935654969
 H         -4.5006241532        1.1283985632       -1.1305075631
 H         -5.1834361585        1.9922318941       -2.5014927409
 C         -3.0665951310        2.1845486266       -2.3296194538
 H         -2.9819762103        3.1436212997       -2.8437656768
 H         -2.9801842339        1.3934645507       -3.0788367194
 C         -1.8749772138        2.0374834446       -1.3652629723
 H         -1.0020044382        1.7292059144       -1.9478509087
 H         -1.6225925786        2.9819929902       -0.8877997990
 H         -4.4059493678        4.2563318104        1.0163039501
 H         -2.9925415799        3.9399657347        0.0336027235
 H         -4.5903279605        1.9039616704        1.6537226549
 H         -3.0818696741        2.6483338868        2.1543968703
 O         -3.0570668023        0.0886831367        1.6436984195
 C         -2.4595503751       -1.1471184370        1.4752516410
 O         -2.7102949760       -1.9700072022        2.3821041693
 H          0.4023293896       -1.2137558460        1.8992921424
 C          1.0528708025       -1.6314401123        1.1396511340
 C          0.5167617805       -2.4687019780        0.1683411815
 C          1.3708940550       -2.9981473800       -0.7899045568
 C          2.7136662150       -2.6592595088       -0.8005490817
 C          3.2263598599       -1.7704131962        0.1270825851
 C          2.3842240691       -1.2598613969        1.1051419108
 N          2.8907301383       -0.2700603461        2.0012131470
 S          2.4286833150        1.2679772874        1.4645869546
 O          3.0457969985        2.2036787730        2.3821263580
 O          0.9890517178        1.3800445836        1.3515909709
 C          3.2089271902        1.3572671248       -0.1282170141
 C          2.5100127638        0.9674605292       -1.2534791087
 C          3.1583621824        0.9945217626       -2.4789069715
 C          4.4807043369        1.4035178823       -2.5564069201
 C          5.1671596100        1.7903923614       -1.4148340964
 C          4.5278194268        1.7648355624       -0.1862462065
 H          5.0158297674        2.0566895967        0.7291182243
 H          6.1956350261        2.1073272969       -1.4782739429
 H          4.9786822246        1.4195588319       -3.5131039373
 H          2.6219020079        0.6875382021       -3.3623166035
 H          1.4837144827        0.6439221739       -1.1631884402
 H          2.5337740639       -0.3821216867        2.9419218208
 H          4.2591865652       -1.4634183011        0.1042095801
 H          3.3620307916       -3.0716896014       -1.5577959251
 H          0.9789741198       -3.6616664293       -1.5433364437
 C         -0.9748339884       -2.6950190265        0.1915367285
 H         -1.2296060189       -3.2792607392        1.0878945949
 C         -1.5001940192       -3.4135557000       -1.0331026653
 C         -1.4959330939       -4.9109805530       -1.0899219402
 C         -2.7888177586       -4.1705797181       -0.9298902442
 H         -3.4742502493       -4.1380822080       -1.7633150618
 H         -3.2763839294       -4.1880502453        0.0343314064
 H         -1.2973471743       -5.3909558152       -2.0361139306
 H         -1.1090997367       -5.4429504094       -0.2339685315
 H         -1.3157238136       -2.8627562834       -1.9480801635
 O         -0.6015550237       -0.4324381081       -1.5339700290
