  62
        -98.94125364
 C         -2.7141802009       -0.2083561690       -0.2099001000
 C         -2.2704499208       -0.9814991485        0.8921311303
 C         -1.7999438514       -2.3410285789        0.5714064409
 C         -1.8108159219       -2.7695863395       -0.7021070989
 C         -1.3485971325       -4.1220718200       -1.1620133983
 C          0.1300002474       -4.1119741807       -1.5697636987
 C          1.0580224679       -3.4727366605       -0.5360859193
 H          2.0792887177       -3.5812252511       -0.9097541195
 H          0.8560039383       -2.4000717804       -0.4830688698
 C          0.9647799080       -4.0792435497        0.8705939511
 H          0.5108009077       -5.0702827296        0.8182695818
 H          1.9768080581       -4.2037159699        1.2619037909
 C          0.2023826686       -3.2225635889        1.8838235008
 H          0.5777477090       -2.1958920990        1.8504574402
 H          0.4103839987       -3.6140663084        2.8838353010
 C         -1.3224679214       -3.1887276384        1.7166313812
 H         -1.7070232718       -4.2078017083        1.6293047819
 H         -1.7449862910       -2.7364239578        2.6189107511
 H          0.4416562069       -5.1425058709       -1.7529974882
 H          0.2282040473       -3.5528214013       -2.5031038490
 H         -1.5099684726       -4.8425650695       -0.3621339678
 H         -1.9507463229       -4.4106143002       -2.0257588179
 O         -2.2415464819       -1.9992276999       -1.7346949492
 C         -2.6682816914       -0.7020052597       -1.5160350598
 O         -3.0080668815       -0.0947105201       -2.5533043800
 H         -0.6024358502        1.0068271508        0.7134657188
 C         -0.7476938800        1.8608049205        0.0690276083
 C         -2.0102211001        2.1488694907       -0.4272150315
 C         -2.1665310199        3.2611863803       -1.2459637520
 C         -1.0799514797        4.0562037197       -1.5659970128
 C          0.1845893503        3.7408356295       -1.1024239429
 C          0.3501742502        2.6303051899       -0.2828444824
 N          1.6157454401        2.2544048397        0.1996153775
 S          1.9236898295        0.5871014496        0.2199811083
 O          1.3437576390       -0.0286026108       -0.9514725912
 O          1.5259033697        0.0596491304        1.4995349587
 C          3.7036709395        0.5811862889        0.1109265478
 C          4.4354080699        0.8545716292        1.2514855775
 C          5.8181482899        0.8889985887        1.1676091271
 C          6.4425700395        0.6503800178       -0.0479207430
 C          5.6950965991        0.3738155875       -1.1827476126
 C          4.3112501591        0.3402141180       -1.1063338922
 H          3.6878892188        0.1233634078       -1.9591509819
 H          6.1830634088        0.1844519568       -2.1252350326
 H          7.5188783295        0.6772837174       -0.1106791433
 H          6.4024801202        1.1003416890        2.0484930568
 H          3.9053080702        1.0226596999        2.1744538575
 H          2.3696441102        2.7667214392       -0.2386752630
 H          1.0377896205        4.3424161691       -1.3770724235
 H         -1.2144342795        4.9166856194       -2.2036818232
 H         -3.1419164299        3.4853046104       -1.6523553319
 C         -3.1695640003        1.2396428513       -0.1028728707
 H         -3.9210220305        1.3740914311       -0.8989209405
 C         -3.8403204798        1.5863381122        1.2173370693
 C         -3.1628145092        2.3733866426        2.2942327187
 C         -4.2662761692        2.9975512525        1.4973463087
 H         -5.2202995190        3.1609956131        1.9749482688
 H         -3.9940846791        3.7543072921        0.7775346482
 H         -3.3502013091        2.0841158332        3.3167718089
 H         -2.1504898592        2.7037514021        2.1183694683
 H         -4.5108756600        0.8001798127        1.5473451199
 O         -2.2765438504       -0.5912430779        2.0878195201
