  62
        -98.93038921
 C          2.4686677259        1.2073088921        0.4893555689
 C          3.3334746729        0.8572287970       -0.5765383963
 C          4.4884208831        0.0179037941       -0.2140356598
 C          4.6728430936       -0.3611846816        1.0621140777
 C          5.8184454382       -1.1728425490        1.6066189607
 C          5.9182861548       -2.6285857782        1.1111908857
 C          6.8401452986       -2.8236079190       -0.0989611123
 H          7.5696392638       -2.0130003042       -0.1189120848
 H          7.4041569074       -3.7488756283        0.0355727610
 C          6.1443693072       -2.9192921681       -1.4601861709
 H          5.7138670092       -3.9171686109       -1.5709874616
 H          6.9064408583       -2.8026866020       -2.2338175680
 C          5.0255528744       -1.9079914068       -1.7107774199
 H          4.1328702533       -2.2021291048       -1.1535235449
 H          4.7569221459       -1.9520547303       -2.7680827626
 C          5.3735377127       -0.4556536854       -1.3303137141
 H          6.4225017520       -0.3710212486       -1.0507695387
 H          5.1876549174        0.2061867572       -2.1785335230
 H          4.9198970534       -3.0084083965        0.8958915146
 H          6.3159743807       -3.2168882454        1.9397198967
 H          5.6832845451       -1.1739696505        2.6901767889
 H          6.7528833005       -0.6510193882        1.3877358543
 O          3.8186919010        0.0017469149        2.0588718339
 C          2.7013315694        0.7724700641        1.7969279182
 O          2.0018855219        1.0161964468        2.8019308545
 O          3.1750828553        1.2183102712       -1.7698321101
 C          1.2256987916        2.0628536920        0.3047972190
 C          0.0480193612        1.2040137295       -0.0781779489
 C          0.0923404271        0.3693963942       -1.1910594369
 C         -0.9999442622       -0.4103138226       -1.5243590520
 C         -2.1509399505       -0.3824944420       -0.7557479833
 C         -2.2039561471        0.4420552580        0.3594328272
 C         -1.1081816546        1.2309658832        0.6873315238
 H         -1.1496443699        1.8647236452        1.5634854646
 N         -3.3613544595        0.4582176207        1.1549930794
 S         -4.8483412310        0.6701196609        0.4050545638
 O         -4.7169499467        1.4331293059       -0.8142565672
 O         -5.7079263657        1.2287253175        1.4253370325
 C         -5.3848673573       -0.9867686690        0.0368588052
 C         -5.4748527514       -1.8887322955        1.0789064026
 C         -5.8978574062       -3.1806313223        0.8104658502
 C         -6.2243764491       -3.5458263320       -0.4872377948
 C         -6.1327040352       -2.6273318879       -1.5216833688
 C         -5.7096521173       -1.3333428512       -1.2599825571
 H         -5.6186134319       -0.5871606089       -2.0333674487
 H         -6.3876315529       -2.9131893064       -2.5295162674
 H         -6.5523334996       -4.5524441109       -0.6934071666
 H         -5.9712331181       -3.8975691915        1.6122967832
 H         -5.2150884439       -1.5647885136        2.0730278850
 H         -3.2849427008        1.0390329123        1.9773397432
 H         -3.0025311290       -0.9916096767       -1.0111413755
 H         -0.9541731475       -1.0507651118       -2.3921428860
 H          0.9900443962        0.3439640009       -1.7898964564
 H          1.0182967353        2.4799371777        1.3031656805
 C          1.4457781031        3.2417187349       -0.6340919824
 C          0.7774918030        3.3923498056       -1.9641734412
 C          0.3573751026        4.2583608045       -0.8174138081
 H          0.6197022584        5.3054419577       -0.8284711758
 H         -0.5995469852        4.0482199551       -0.3618160634
 H          1.3551189643        3.8300828144       -2.7638528884
 H          0.0986472154        2.6208196112       -2.2909052816
 H          2.4578922014        3.6267999013       -0.5640367345
