  62
        -98.93814138
 C         -0.2678473512       -2.0484961690       -0.2572049410
 C         -0.8733449906       -0.8522322985       -0.7076859503
 C         -2.2436206903       -0.5814508278       -0.2272451198
 C         -2.8109191205       -1.4169427578        0.6591268201
 C         -4.1756584402       -1.3402163472        1.2963760006
 C         -4.6196897892        0.0395816629        1.8065434312
 C         -5.7399560991        0.6654069039        0.9732450718
 H         -6.4458924397       -0.1207850656        0.6974657518
 H         -6.2784502085        1.3826127340        1.5968205423
 C         -5.2830736391        1.3990871141       -0.2863752280
 H         -6.1770736291        1.6679569848       -0.8538937777
 H         -4.7865501084        2.3289676037       -0.0005746079
 C         -4.3412029599        0.6087327639       -1.1967436487
 H         -4.6615317705       -0.4299293759       -1.2672461889
 H         -4.4121349700        1.0332247943       -2.2001729085
 C         -2.8693305897        0.6770903928       -0.7632138991
 H         -2.7327571690        1.4711304324       -0.0233583889
 H         -2.2442619598        0.9538430727       -1.6177607092
 H         -4.9892466590       -0.0861159972        2.8258539313
 H         -3.7606174888        0.7076936924        1.8591473912
 H         -4.9126325807       -1.7289545265        0.5889711107
 H         -4.1386155304       -2.0480059075        2.1277528903
 O         -2.1736760510       -2.5382242683        1.1036531195
 C         -0.9130179014       -2.8823894989        0.6591518989
 O         -0.4750569919       -3.9473052794        1.1423583084
 O         -0.3239452804       -0.0273104785       -1.4860276502
 C          1.1234363584       -2.5031857597       -0.6718708516
 C          2.1813995691       -1.8391431206        0.1765037083
 C          3.1526192188       -2.5860685215        0.8327997377
 C          4.1051462495       -1.9629120124        1.6196575576
 C          4.0925390804       -0.5894586124        1.7859757281
 C          3.1236308306        0.1642637884        1.1341641387
 C          2.1946897900       -0.4594458807        0.3163493888
 H          1.4538272702        0.1351026199       -0.1911516808
 N          3.0664257215        1.5594864584        1.2727955992
 S          1.5699682320        2.3085979693        1.3682596800
 O          1.8336065130        3.5480666189        2.0748257504
 O          0.5785719717        1.4502497397        1.9781950000
 C          1.1151137117        2.7151447002       -0.3031222297
 C          2.0373811713        2.6631131900       -1.3268930100
 C          1.6356381011        3.0249179607       -2.6030064497
 C          0.3321084113        3.4348896816       -2.8310606892
 C         -0.5799064983        3.4886991518       -1.7894187388
 C         -0.1847082681        3.1270716611       -0.5127703291
 H         -0.8618301378        3.1417477712        0.3271053211
 H         -1.5967278182        3.8010044725       -1.9675093484
 H          0.0217409411        3.7075079522       -3.8276149190
 H          2.3410045908        2.9776222506       -3.4173663400
 H          3.0407572312        2.3270806493       -1.1229564605
 H          3.7214155120        1.9554321978        1.9312768392
 H          4.8202151509       -0.1042284231        2.4187136980
 H          4.8548501793       -2.5536235230        2.1239848471
 H          3.1468141281       -3.6620434114        0.7385242573
 H          1.1572200178       -3.5815731398       -0.4636200120
 C          1.4158554980       -2.2887515093       -2.1447635016
 C          2.4565278173       -3.1351091997       -2.8111562923
 C          1.0067670371       -3.3360282287       -3.1342591019
 H          0.6402552369       -3.0174621081       -4.0982822017
 H          0.5162223866       -4.2196601185       -2.7517568621
 H          3.0904290273       -2.6788928598       -3.5556036423
 H          2.9500079670       -3.8869817302       -2.2141430027
 H          1.3316469886       -1.2541041992       -2.4489159312
