  62
        -98.93600216
 C          1.8026664072        0.7517594474        0.8053038402
 C          2.2139532532        0.3607546169       -0.4913217650
 C          3.6650127767        0.3804913851       -0.7381714666
 C          4.4933834097        0.7831977176        0.2426894597
 C          5.9942280489        0.7819178378        0.1723302662
 C          6.5284469615       -0.6511063460        0.3708381151
 C          7.2298033514       -1.2380347078       -0.8543422924
 H          8.2224656861       -0.7914953747       -0.9426161966
 H          7.3645865649       -2.3065713914       -0.6731141306
 C          6.5091454930       -1.0458733101       -2.1923023982
 H          6.6894094223       -0.0362131195       -2.5642365459
 H          6.9769223661       -1.7280088352       -2.9054681074
 C          4.9966226682       -1.3032772782       -2.1839719418
 H          4.7337595427       -1.8113055329       -3.1140380967
 H          4.7244774148       -1.9745123140       -1.3690528050
 C          4.1300195136       -0.0322176995       -2.1072816333
 H          4.6586752103        0.7994208736       -2.5810973838
 H          3.2093858573       -0.2028547593       -2.6731069583
 H          7.2302275318       -0.6657005688        1.2061980203
 H          5.6910335214       -1.2924336277        0.6540600242
 H          6.3184655739        1.1824624225       -0.7854418529
 H          6.3572376669        1.4355052567        0.9657527390
 O          4.0554676918        1.1729197745        1.4689738199
 C          2.7067526626        1.1595685436        1.7844630406
 O          2.4449184904        1.5236795681        2.9492815616
 O          1.4121592032        0.0106665246       -1.3957076443
 C          0.3282383324        0.7464365473        1.1612128430
 C         -0.2766995025       -0.6198953535        0.9448836433
 C          0.4575770617       -1.7566918723        1.2722497887
 C         -0.0727358792       -3.0187188926        1.0904134476
 C         -1.3585587420       -3.1755830555        0.6039213005
 C         -2.1091718275       -2.0489616867        0.2950122657
 C         -1.5653323731       -0.7819678089        0.4590280720
 H         -2.1644700546        0.0782038239        0.2103089948
 N         -3.4169188117       -2.1703092120       -0.1987320659
 S         -4.6133724044       -1.1520730559        0.3781224169
 O         -4.3720560630       -0.7694751072        1.7496767749
 O         -5.8501633592       -1.8619932322        0.1266060506
 C         -4.5563841875        0.2782075434       -0.6802132881
 C         -4.8403406666        1.5167367331       -0.1400104044
 C         -4.8517100310        2.6257653254       -0.9718961949
 C         -4.5796374439        2.4770664449       -2.3229979400
 C         -4.2970127638        1.2257783319       -2.8498173927
 C         -4.2892544463        0.1124537102       -2.0247638260
 H         -4.0709746920       -0.8728673205       -2.4012218455
 H         -4.0824935379        1.1145158718       -3.9005487529
 H         -4.5861820118        3.3414611963       -2.9682066734
 H         -5.0708268731        3.5993544312       -0.5627055092
 H         -5.0333645053        1.5894608689        0.9184240498
 H         -3.7502646003       -3.1192641679       -0.2878418851
 H         -1.7766497125       -4.1611875836        0.4655965367
 H          0.5159272065       -3.8894653602        1.3379834007
 H          1.4582884863       -1.6374717150        1.6654552450
 H          0.2722686827        0.9720748518        2.2370847614
 C         -0.3865470976        1.8435519846        0.3977241907
 C         -1.5610792424        2.5522293948        1.0002600124
 C         -0.2456590244        3.2580238064        0.8710300682
 H         -0.1502585505        4.0419450255        0.1351094635
 H          0.3393899342        3.4232371251        1.7643365334
 H         -2.3680042529        2.8522576515        0.3487237099
 H         -1.8811724426        2.2448763558        1.9848795174
 H         -0.3870108908        1.6694059657       -0.6722791143
