  62
        -98.93173536
 C         -2.5202207889        1.0987789569       -0.1184063203
 C         -3.1433107534        0.2533557362       -1.0683665671
 C         -4.4564313583       -0.3194958902       -0.7168612045
 C         -4.9922631380       -0.0118044562        0.4788149837
 C         -6.2948927748       -0.4793617888        1.0729349700
 C         -6.2349611725       -1.9292797988        1.5766980745
 C         -5.5705942381       -2.9127918740        0.6175405165
 H         -5.5113475584       -3.8803094017        1.1229540225
 H         -4.5476470949       -2.5866444322        0.4215424755
 C         -6.3002839634       -3.1215902069       -0.7073960177
 H         -7.3205958391       -3.4555999260       -0.5066237477
 H         -5.7855509062       -3.9277557903       -1.2363042687
 C         -6.3579905688       -1.9082223601       -1.6390212550
 H         -7.1279763508       -1.2068896284       -1.3285127545
 H         -6.6512275703       -2.2713807345       -2.6283723983
 C         -5.0292803916       -1.1805512651       -1.8168006306
 H         -5.1046391114       -0.5233630252       -2.6916207196
 H         -4.2504782891       -1.9081201856       -2.0727899554
 H         -7.2520971822       -2.2596413898        1.7945491934
 H         -5.6688683150       -1.9400037490        2.5112648104
 H         -7.0998328016       -0.3538346145        0.3548040738
 H         -6.5020305702        0.1753676086        1.9223929155
 O         -4.3522643064        0.7967020874        1.3690485702
 C         -3.1175613293        1.3707739403        1.1130214875
 O         -2.6915899846        2.0768416208        2.0440827694
 O         -2.6240372216       -0.0120760795       -2.1877061548
 C         -1.1927248690        1.7135596212       -0.5216552380
 C         -0.0175540032        0.9070733175       -0.0329218634
 C          0.1016404738        0.5213764690        1.2983663502
 C          1.2131049556       -0.1819752889        1.7271803401
 C          2.2247601917       -0.5143671744        0.8428339344
 C          2.1118334471       -0.1421360197       -0.4893427515
 C          0.9941628051        0.5610437818       -0.9174288639
 H          0.9078842536        0.8422536286       -1.9590375877
 N          3.1481744282       -0.4754266064       -1.3871912698
 S          4.6258754049        0.2815450662       -1.0972802471
 O          4.4324436080        1.5754527114       -0.4834875101
 O          5.3171814746        0.2690962929       -2.3677160447
 C          5.4573380741       -0.8120719214        0.0332477910
 C          5.7717756732       -0.3732266240        1.3044101501
 C          6.4254951302       -1.2380160123        2.1683679638
 C          6.7510927172       -2.5184939326        1.7476374394
 C          6.4300179515       -2.9427664717        0.4665554064
 C          5.7779018197       -2.0829153209       -0.4027000588
 H          5.5177684643       -2.3691658300       -1.4080744650
 H          6.6862158362       -3.9388868533        0.1433830594
 H          7.2593762941       -3.1894316621        2.4220997417
 H          6.6768240813       -0.9097641021        3.1641433714
 H          5.4949642268        0.6295085389        1.5882509406
 H          2.8902823614       -0.3444488550       -2.3558066268
 H          3.0917695590       -1.0624686925        1.1739163535
 H          1.2934915816       -0.4722936649        2.7637456010
 H         -0.6807254038        0.7891211926        1.9924445331
 H         -1.1896031038        1.6594168236       -1.6224845075
 C         -1.0824946011        3.1865086641       -0.1493519950
 C         -0.2100482350        3.7119502739        0.9461658114
 C          0.1589029940        3.9605120092       -0.4837097117
 H          0.0561798995        4.9582573329       -0.8828761782
 H          1.0011071568        3.4118036051       -0.8803418261
 H         -0.5915426049        4.5292992691        1.5385522954
 H          0.3858120670        3.0113010764        1.5088968793
 H         -2.0263556779        3.7037137504       -0.2932202535
