  62
        -98.94760959
 C          0.7725948315        1.2709218065        0.0543856087
 C          1.4902050527        0.6135903158        1.0808575099
 C          2.4089545892       -0.4453912387        0.6430233872
 C          2.4669018685       -0.7668015743       -0.6624128699
 C          3.4272631600       -1.7522202529       -1.2609652967
 C          4.7265142237       -1.0582463169       -1.6969561157
 C          5.3363285113       -0.1494178064       -0.6295550853
 H          6.2608778341        0.2606425921       -1.0418266514
 H          4.6641377071        0.6930013484       -0.4505701900
 C          5.6383235676       -0.8476950370        0.7037151625
 H          5.6604407488       -1.9284442743        0.5596436361
 H          6.6320837029       -0.5453516768        1.0407797383
 C          4.6628136514       -0.5072395523        1.8319179233
 H          4.5683354960        0.5780440124        1.9208787516
 H          5.0848683747       -0.8761391971        2.7706733156
 C          3.2567272185       -1.1049954637        1.6940272836
 H          2.7339434238       -0.9510516551        2.6427549953
 H          3.3366389308       -2.1785966828        1.5136732172
 H          4.5142204209       -0.4507052480       -2.5795938253
 H          5.4498201643       -1.8255983254       -1.9785876750
 H          3.6468331794       -2.5313353103       -0.5342620036
 H          2.9585288168       -2.1989726495       -2.1383606990
 O          1.6912843441       -0.1760437979       -1.6060555766
 C          0.8499290868        0.8770165806       -1.2815268681
 O          0.2368143091        1.3633113451       -2.2499540461
 O          1.3804106355        0.9092639897        2.3025503525
 C         -0.1103423455        2.4513109933        0.4105035677
 C         -1.5193956171        2.2568479727       -0.0904539674
 C         -2.2713316491        3.2822296878       -0.6499519736
 C         -3.5662027571        3.0469140001       -1.0778279869
 C         -4.1385988770        1.7955225589       -0.9507492605
 C         -3.3962870235        0.7630074803       -0.3867567935
 C         -2.1007107329        1.0022003574        0.0404557757
 H         -1.5292293894        0.2008444444        0.4858907846
 N         -3.9358594290       -0.5232743671       -0.2793231102
 S         -3.3817544292       -1.6372564915        0.8239338485
 O         -4.3964024947       -2.6704335927        0.8182059787
 O         -3.1060534349       -1.0391214057        2.1096097299
 C         -1.8963322049       -2.3004397641        0.1036802738
 C         -1.9019006400       -2.6308966342       -1.2366198108
 C         -0.7745991756       -3.2200228010       -1.7851547350
 C          0.3281598118       -3.4785736499       -0.9862101990
 C          0.3205497765       -3.1346176728        0.3560419214
 C         -0.8005393106       -2.5372100841        0.9085535551
 H         -0.8407015480       -2.2433124829        1.9461283630
 H          1.1788611421       -3.3294781523        0.9780934269
 H          1.1988582180       -3.9526079542       -1.4103588350
 H         -0.7604229296       -3.4788344717       -2.8316676664
 H         -2.7799115604       -2.4240044357       -1.8256415890
 H         -4.9153118783       -0.6192165698       -0.4985310372
 H         -5.1469950962        1.6119406136       -1.2883411957
 H         -4.1384338812        3.8507605897       -1.5155199918
 H         -1.8431912868        4.2654247321       -0.7556347227
 H         -0.1419826562        2.4752978833        1.5109507156
 C          0.5302669077        3.7330725560       -0.0855319309
 C          0.3553331975        5.0162407437        0.6688744548
 C          1.6777344572        4.3120507287        0.6847202107
 H          2.5020364821        4.7446773018        0.1376727052
 H          1.9745065223        3.7990799326        1.5881132982
 H          0.2741405922        5.9365796644        0.1102563597
 H         -0.2415757404        4.9904833862        1.5681078995
 H          0.5819144678        3.7763852583       -1.1681067632
