  62
        -98.94693028
 C         -2.0702626937       -1.0328302262       -0.5187119148
 C         -1.4875989128        0.0783554877       -1.1739654649
 C         -2.1664413304        1.3695962823       -0.9861381798
 C         -3.2647884155        1.4385323934       -0.2146300081
 C         -4.0177657314        2.6965546192        0.1054766385
 C         -3.4947800117        3.3499307205        1.3918392740
 C         -1.9750192947        3.5145714018        1.4340208833
 H         -1.7301394866        4.0297110965        2.3660303652
 H         -1.4999469177        2.5312161549        1.4837919336
 C         -1.3844921972        4.2933300825        0.2504130797
 H         -2.1673406216        4.8699204349       -0.2450222414
 H         -0.6489446642        5.0034818717        0.6343853119
 C         -0.6630711658        3.4169394134       -0.7752296561
 H          0.0295943500        2.7536521559       -0.2505757811
 H         -0.0716502866        4.0674577944       -1.4258133531
 C         -1.5709273786        2.5662408574       -1.6733744061
 H         -2.3549130411        3.1928587975       -2.1043401069
 H         -0.9589250023        2.1721746429       -2.4898773586
 H         -3.9695050768        4.3273831716        1.4988043020
 H         -3.7943229161        2.7316854040        2.2414748254
 H         -3.9275291332        3.3899560820       -0.7284608376
 H         -5.0701422920        2.4408376657        0.2418543901
 O         -3.8003375847        0.3528375071        0.3999684037
 C         -3.2126830090       -0.8932661238        0.2755771204
 O         -3.8025550086       -1.7978199485        0.9021539664
 H          0.7548112802       -0.9829387128       -0.1512867857
 C          0.6281410478       -1.7412127704        0.6023216475
 C         -0.4640848065       -2.5958392144        0.5388714998
 C         -0.6101559042       -3.5723300125        1.5163287318
 C          0.3087269615       -3.6777853627        2.5453366126
 C          1.3695184063       -2.7956204348        2.6306788533
 C          1.5251740415       -1.8133138339        1.6570477801
 N          2.5893784551       -0.9054173461        1.7323271173
 S          2.4219288895        0.7143688338        1.3134517836
 O          3.2086779441        1.4234440836        2.3040311575
 O          1.0362774462        1.0979127606        1.2113993880
 C          3.2761242769        0.8165756980       -0.2458292979
 C          2.5901312975        0.8465642852       -1.4418524357
 C          3.3142832444        0.8973547061       -2.6243532138
 C          4.6991800794        0.9166795910       -2.5929282789
 C          5.3738974456        0.8883279452       -1.3811704236
 C          4.6579715022        0.8375511508       -0.1974583800
 H          5.1402351947        0.8279231661        0.7659390177
 H          6.4516443547        0.9050106113       -1.3570601951
 H          5.2546117421        0.9549820647       -3.5168912356
 H          2.7833984137        0.9171482970       -3.5628334348
 H          1.5111110819        0.8206230601       -1.4520329303
 H          3.1581018955       -1.0016412311        2.5607883786
 H          2.0715328535       -2.8582459125        3.4486852710
 H          0.1863809045       -4.4404454807        3.2996088931
 H         -1.4618202367       -4.2356478995        1.4784635818
 C         -1.4915397800       -2.4402376791       -0.5581441407
 H         -2.3293742961       -3.1119629346       -0.3245242022
 C         -0.9177933984       -2.8445025372       -1.9011549041
 C         -0.8222925500       -4.3015362659       -2.2364163668
 C         -1.8232212973       -3.4343202984       -2.9381762267
 H         -1.6540938592       -3.1789033924       -3.9732537698
 H         -2.8668570615       -3.5499089285       -2.6828894801
 H          0.0374864697       -4.6459850330       -2.7899842223
 H         -1.1888205716       -5.0089497576       -1.5079004592
 H         -0.1252158781       -2.1947822640       -2.2458902186
 O         -0.4573625738        0.0231385332       -1.8965887866
