  62
        -98.93774350
 C          2.2659751375        0.7652929322        0.0165286028
 C          3.1565469303        0.2986458833        1.0182419676
 C          4.0761067169       -0.7910504194        0.6514382048
 C          4.0407163268       -1.2862915398       -0.5993665027
 C          4.8147461265       -2.4129054669       -1.2512615777
 C          6.0582102612       -2.9935231776       -0.5830870831
 C          7.2517477463       -2.0411557037       -0.5177103586
 H          8.0405599135       -2.5211780010        0.0655265598
 H          7.6320939879       -1.8913190620       -1.5313719395
 C          6.9644593113       -0.6634188504        0.0739041752
 H          7.8946686480       -0.0891662383        0.0505759210
 H          6.2459914928       -0.1356895898       -0.5567391930
 C          6.4549206290       -0.6634417970        1.5137888270
 H          6.4453595140        0.3738855676        1.8590357678
 H          7.1469905714       -1.2201490108        2.1485438470
 C          5.0392515657       -1.2308754104        1.7162758599
 H          5.0553016544       -2.3153200134        1.7944036353
 H          4.6506905223       -0.8395982656        2.6608965657
 H          5.8136483703       -3.3672770672        0.4067856686
 H          6.3584768548       -3.8574895215       -1.1822693137
 H          4.0910453275       -3.2222479869       -1.3987740529
 H          5.0800520923       -2.0527655057       -2.2504310207
 O          3.1666885937       -0.8077662290       -1.5305667028
 C          2.2704803624        0.2139771897       -1.2628928042
 O          1.5600392392        0.5112501127       -2.2459278910
 H         -0.3920227114        0.5926131745       -1.2242299629
 C         -0.8163444245        0.7558230469       -0.2444867784
 C         -0.0599977045        1.3988656121        0.7249074648
 C         -0.6213277284        1.5985074482        1.9807038906
 C         -1.9058344229        1.1628827618        2.2552991192
 C         -2.6530948462        0.5146058068        1.2884303707
 C         -2.1007469818        0.3079270880        0.0309739504
 N         -2.8347865893       -0.3776401596       -0.9517048792
 S         -4.4190992818        0.0867462755       -1.2459368247
 O         -4.7032114231       -0.3600174671       -2.5921327533
 O         -4.6196151223        1.4928315405       -0.9806470314
 C         -5.3696171913       -0.8902674663       -0.0996329511
 C         -5.1733468155       -2.2574349106       -0.0887463927
 C         -5.9141483455       -3.0325803526        0.7890465456
 C         -6.8357662038       -2.4317326200        1.6338574409
 C         -7.0238060902       -1.0583844241        1.6081993395
 C         -6.2850458965       -0.2770121263        0.7332346943
 H         -6.3922942096        0.7947945327        0.6827269271
 H         -7.7408878791       -0.5932686182        2.2653658902
 H         -7.4106991661       -3.0379655163        2.3159355830
 H         -5.7700081064       -4.1008293632        0.8122285563
 H         -4.4483873045       -2.6852062290       -0.7612254382
 H         -2.3273000159       -0.5011961156       -1.8162164101
 H         -3.6528967231        0.1708120849        1.4974471408
 H         -2.3293979743        1.3259090797        3.2344804927
 H         -0.0396076840        2.0907910205        2.7462258641
 C          1.3316778501        1.8962171615        0.4116143304
 H          1.7553370692        2.3034014834        1.3394726753
 C          1.2728096087        3.0109906055       -0.6155837688
 C          0.8472651456        4.3797317117       -0.1800055228
 C          2.2756364036        4.1219261838       -0.5537870920
 H          2.6509370681        4.5284272142       -1.4809421498
 H          3.0110878220        4.0871784090        0.2367933460
 H          0.6149353335        4.5222718729        0.8644389480
 H          0.2360214660        4.9655269591       -0.8493787254
 H          0.9626988271        2.6760493046       -1.5971641303
 O          3.1819291032        0.7770641606        2.1833092934
