  62
        -98.93222996
 C         -2.2790025234       -1.1993398965        0.0567386126
 C         -3.1718375079       -0.6273792511        0.9976090315
 C         -4.1795907804        0.3194069696        0.4872609287
 C         -4.1863184069        0.6138728519       -0.8247503841
 C         -5.1050494414        1.5371584467       -1.5842007583
 C         -5.4147504988        2.8921149546       -0.9291870512
 C         -6.8525835999        3.0075438686       -0.4200945589
 H         -7.1234368582        4.0648014600       -0.3761201642
 H         -7.5168456468        2.5314183183       -1.1443532642
 C         -7.1019831538        2.4096279868        0.9634471873
 H         -8.1795054237        2.4305121521        1.1427045508
 H         -6.6346708623        3.0432445963        1.7203364432
 C         -6.6004765272        0.9772312968        1.1578844635
 H         -7.1684808636        0.5335579346        1.9783161214
 H         -6.8030526913        0.3776819201        0.2710837272
 C         -5.1106068691        0.8905269815        1.5215781392
 H         -4.7416664785        1.8752759026        1.8225666737
 H         -4.9819053665        0.2431007256        2.3945332283
 H         -5.2612991797        3.6675243218       -1.6815430782
 H         -4.7098717302        3.0828855707       -0.1214141966
 H         -4.6151268778        1.6937218366       -2.5480177842
 H         -6.0363023376        1.0044138230       -1.7925023005
 O         -3.3040781041        0.0472755598       -1.6953435522
 C         -2.3384372066       -0.8643920964       -1.2953344922
 O         -1.6233800316       -1.2713079620       -2.2312815253
 H          0.2122924240       -0.6135264751       -1.0230040728
 C          0.6848176938       -0.7546496512       -0.0615852876
 C          0.0560688285       -1.5391509655        0.8957289027
 C          0.6854984927       -1.7233509528        2.1209441629
 C          1.9125603370       -1.1363345041        2.3774063428
 C          2.5352927207       -0.3559396402        1.4200649571
 C          1.9153492879       -0.1664569663        0.1917983137
 N          2.5406353563        0.6276831674       -0.7885236335
 S          4.0999084007        0.1863743357       -1.2422908265
 O          4.2615919199        0.6774554633       -2.5930377755
 O          4.3244663667       -1.2259685782       -1.0372093961
 C          5.1424825363        1.1344274550       -0.1537363522
 C          6.0107311738        0.4904741931        0.7059148001
 C          6.8130940778        1.2516285658        1.5418840828
 C          6.7343092677        2.6353140662        1.5024502791
 C          5.8598192283        3.2667373307        0.6303879259
 C          5.0553029691        2.5117613853       -0.2079687718
 H          4.3668427293        2.9617610654       -0.9037374780
 H          5.8024237487        4.3429296067        0.6012008826
 H          7.3588420971        3.2255596127        2.1542819191
 H          7.4942566985        0.7627355222        2.2196613900
 H          6.0354553649       -0.5875977136        0.7032613954
 H          1.9677835383        0.7590504067       -1.6106697785
 H          3.4901718989        0.1046534071        1.6135209283
 H          2.3891299729       -1.2867411309        3.3338982102
 H          0.2016669251       -2.3238190146        2.8772801041
 C         -1.2678047708       -2.1949665745        0.5968013131
 H         -1.6935903344       -2.5275565740        1.5565884545
 C         -1.1240045746       -3.4289691503       -0.2852568278
 C          0.1033547116       -3.7522318974       -1.0786616898
 C         -0.2319486503       -4.5581944216        0.1382948185
 H         -0.5814777734       -5.5713543510        0.0107553988
 H          0.3783511682       -4.4059720941        1.0157237801
 H         -0.0357089979       -4.1942935287       -2.0537389095
 H          0.9459195099       -3.0792932551       -1.0303079690
 H         -2.0687846190       -3.7049674552       -0.7434486946
 O         -3.1354243861       -0.9087250359        2.2256354247
