  62
        -98.93407003
 C         -2.2255997615       -1.3236595792        0.1810971341
 C         -3.1791616317       -0.6846389959        1.0128195378
 C         -4.0413162545        0.3162383924        0.3707118809
 C         -3.8695762077        0.6007649312       -0.9324461247
 C         -4.6945318153        1.5455189614       -1.7662885578
 C         -4.6264350459        3.0363844745       -1.3830587430
 C         -5.7332136595        3.4951603573       -0.4253272191
 H         -6.0754141289        4.4849849084       -0.7339747135
 H         -6.5860817533        2.8230399046       -0.5272818877
 C         -5.3378808849        3.5997398322        1.0506841665
 H         -6.2548482737        3.6867505510        1.6373630099
 H         -4.7624688251        4.5160450578        1.2016806410
 C         -4.5060972020        2.4414762224        1.6016228963
 H         -4.4611134043        2.5399836166        2.6881288840
 H         -3.4773394438        2.5257145331        1.2418600589
 C         -5.0325050237        1.0402891989        1.2348443337
 H         -5.1551327212        0.4407412153        2.1390706966
 H         -5.9971321897        1.1106888773        0.7344625284
 H         -4.7219365927        3.6041197856       -2.3100707586
 H         -3.6434700015        3.2614319139       -0.9691569328
 H         -5.7351907083        1.2137022107       -1.7431980590
 H         -4.3280177854        1.4245022257       -2.7878131573
 O         -2.9061670678        0.0036019160       -1.6849828138
 C         -2.0516350905       -0.9561421408       -1.1544348088
 O         -1.2118193627       -1.3832581861       -1.9671886429
 O         -3.3069968799       -0.9423295832        2.2398567715
 C         -1.3268885655       -2.3699478144        0.8165660855
 C          0.1141766255       -2.0966809195        0.4660872921
 C          0.9255871294       -2.9874242978       -0.2228156840
 C          2.2339161488       -2.6512470058       -0.5244338533
 C          2.7621792209       -1.4318296937       -0.1433937153
 C          1.9577040966       -0.5305850865        0.5419326382
 C          0.6494460634       -0.8716735855        0.8462707494
 H          0.0195772314       -0.1656021695        1.3750659774
 N          2.4864764721        0.7077744375        0.9475965618
 S          3.3306820466        1.6265017205       -0.1758855407
 O          3.2350729368        2.9864683541        0.3111042578
 O          2.8644553935        1.3940531444       -1.5230434526
 C          5.0123344082        1.0673121811       -0.0003324458
 C          5.7224448513        0.6649937814       -1.1144431082
 C          7.0337924246        0.2434814033       -0.9571053548
 C          7.6085866822        0.2327257714        0.3044814045
 C          6.8824116293        0.6423256121        1.4129827329
 C          5.5718463288        1.0664175446        1.2625268594
 H          4.9747665595        1.3946073723        2.0967525119
 H          7.3324656039        0.6320549372        2.3925659103
 H          8.6283979648       -0.0971922936        0.4244093374
 H          7.5992913782       -0.0750601654       -1.8180195800
 H          5.2308565784        0.6831032454       -2.0742671606
 H          1.8266630841        1.2842903419        1.4498048549
 H          3.7783148710       -1.1654705589       -0.3842316801
 H          2.8513886823       -3.3493997954       -1.0687732540
 H          0.5258053142       -3.9330871096       -0.5492739777
 H         -1.4461463870       -2.2047576924        1.9008570251
 C         -1.7527788137       -3.8061820544        0.5531638499
 C         -3.1906430065       -4.1509836834        0.3087179633
 C         -2.1899185696       -4.2839002622       -0.7978798253
 H         -1.8996731288       -5.2773150272       -1.1075530558
 H         -2.2082318881       -3.5648228179       -1.6015473694
 H         -3.5864489200       -5.0494454492        0.7577810455
 H         -3.8995876932       -3.3370099330        0.2617241190
 H         -1.1886044760       -4.5095785206        1.1578478425
