  62
        -98.94417070
 C         -2.6382166307       -1.0947968323        0.1949038525
 C         -2.7372982750       -0.2890468461       -0.9653663057
 C         -3.5503546880        0.9284582933       -0.8296061696
 C         -4.1406096233        1.2006245130        0.3485550174
 C         -4.9454282155        2.4335770733        0.6399253812
 C         -4.0607184981        3.5536634983        1.2054385309
 C         -2.7896335997        3.8061541362        0.3942375709
 H         -2.2585481997        4.6331581746        0.8708200891
 H         -2.1426991880        2.9281171487        0.4623903666
 C         -3.0354773506        4.1386447694       -1.0841770932
 H         -2.4046883109        4.9857160294       -1.3614793417
 H         -4.0720047044        4.4462751894       -1.2263542276
 C         -2.7068372957        3.0012769860       -2.0531983291
 H         -2.7064541572        3.4088452366       -3.0674791183
 H         -1.7003370703        2.6254947743       -1.8513330650
 C         -3.6758116018        1.8122391631       -2.0385944490
 H         -4.7010372895        2.1705132888       -2.1504155476
 H         -3.4356852709        1.1786321650       -2.8972785875
 H         -4.6517054558        4.4700125065        1.2532110515
 H         -3.7693170277        3.2844452609        2.2235932179
 H         -5.7096069117        2.1797474286        1.3764657426
 H         -5.4321948531        2.7673468194       -0.2742545065
 O         -4.0254447408        0.3988977538        1.4392675358
 C         -3.2622877686       -0.7571430932        1.3945200855
 O         -3.2139540771       -1.3849342779        2.4730837651
 O         -2.1751377733       -0.5680403689       -2.0553746903
 C         -1.8056641713       -2.3628500850        0.1604166676
 C         -0.3756785348       -2.0424919312       -0.2056815899
 C          0.3748484603       -2.8118592111       -1.0848457598
 C          1.6880464979       -2.4754153439       -1.3656498866
 C          2.2806454034       -1.3720939316       -0.7804724413
 C          1.5445087129       -0.6035762483        0.1120228474
 C          0.2323897911       -0.9479503473        0.3969779092
 H         -0.3381674627       -0.3497404853        1.0984535088
 N          2.1346894337        0.5263376102        0.7067803539
 S          3.6156902704        0.3284053625        1.4754740548
 O          3.7692352237       -1.0136381475        1.9879727661
 O          3.6820922958        1.3988533613        2.4465674407
 C          4.8104982713        0.6336447165        0.1916737518
 C          4.7398026973        1.8314333317       -0.4922952602
 C          5.6678781989        2.0880910556       -1.4887358062
 C          6.6470588450        1.1498579746       -1.7800657404
 C          6.7068166489       -0.0461709667       -1.0813957157
 C          5.7804076362       -0.3100020552       -0.0843910103
 H          5.7833998254       -1.2282190522        0.4809610666
 H          7.4689803645       -0.7738609010       -1.3091463513
 H          7.3678134625        1.3524549249       -2.5564282064
 H          5.6242702918        3.0169075696       -2.0343781381
 H          3.9656398302        2.5343679837       -0.2331952415
 H          1.5029947995        1.0492330042        1.2959530606
 H          3.2998393482       -1.1022626002       -1.0037931861
 H          2.2570638949       -3.0797371851       -2.0554048773
 H         -0.0696661539       -3.6742376648       -1.5536245500
 H         -1.8096032718       -2.7586146436        1.1874065453
 C         -2.4489664995       -3.3830031512       -0.7564727529
 C         -2.3015535449       -4.8485565898       -0.4819748226
 C         -3.6176435245       -4.1711425167       -0.2490525887
 H         -4.4336184423       -4.3778825035       -0.9250408211
 H         -3.9302397448       -3.9916527887        0.7697679660
 H         -2.2172959189       -5.5245124856       -1.3195494889
 H         -1.7235704099       -5.1406884481        0.3819270115
 H         -2.4777810118       -3.0527944986       -1.7883497058
