  62
        -98.94257242
 C         -2.3183068411       -0.9439960794        0.1835563505
 C         -2.5501105109        0.3719839306       -0.2851882895
 C         -3.6893193508        1.0756033508        0.3205585005
 C         -4.4055908009        0.4898173910        1.2961634705
 C         -5.5810874608        1.0882662812        2.0193606304
 C         -6.9156010508        0.9215168514        1.2793291604
 C         -7.0868870807        1.8003546213        0.0396118203
 H         -8.1378814007        1.7430848715       -0.2505506097
 H         -6.8772001105        2.8384843713        0.2992600003
 C         -6.2221231607        1.3827008212       -1.1580026296
 H         -5.8676141709        0.3595363611       -1.0131367596
 H         -6.8309650407        1.3841047013       -2.0649766296
 C         -5.0198729405        2.2901383410       -1.4194481996
 H         -4.4604340706        1.8822191309       -2.2653677996
 H         -5.3671140704        3.2881903010       -1.6961098296
 C         -4.0560425106        2.4200209009       -0.2326262796
 H         -4.4976458205        3.0438595110        0.5440460804
 H         -3.1388981005        2.8977310107       -0.5861012096
 H         -7.0312737010       -0.1283564086        1.0003200804
 H         -7.7122603508        1.1674080615        1.9851275203
 H         -5.3976230007        2.1461943411        2.2085178604
 H         -5.6522240309        0.5700491712        2.9780009704
 O         -4.1182997011       -0.7545299891        1.7598413505
 C         -3.1011447712       -1.5053512193        1.1995730405
 O         -2.9879733514       -2.6484327893        1.6850370106
 O         -1.8598087108        0.9568939605       -1.1641299695
 C         -1.2453158612       -1.8617949796       -0.3821225994
 C          0.1321627088       -1.5465150798        0.1506771206
 C          0.8399967286       -2.4882287699        0.8882645507
 C          2.1221007787       -2.2174810801        1.3332693407
 C          2.7249175389       -1.0050766002        1.0491876407
 C          2.0236129990       -0.0554077601        0.3182860407
 C          0.7382211490       -0.3287457899       -0.1241945894
 H          0.1958222191        0.4157992502       -0.6887967494
 N          2.6352307792        1.1845473298        0.0266407206
 S          3.9548581693        1.1036962696       -1.0174867393
 O          4.0882131295        2.4320519495       -1.5747180493
 O          3.8106946791        0.0218808396       -1.9657036993
 C          5.3364684492        0.7817674194        0.0581125707
 C          5.6582409793        1.7278956593        1.0117015807
 C          6.7365321992        1.4923421892        1.8496684608
 C          7.4715934891        0.3232088191        1.7189748808
 C          7.1371889889       -0.6152387409        0.7545596008
 C          6.0591979290       -0.3862830307       -0.0863412092
 H          5.7583374689       -1.0878629807       -0.8476834192
 H          7.7098584888       -1.5232258610        0.6543258309
 H          8.3107186290        0.1428762290        2.3722144408
 H          7.0004333093        2.2197313392        2.6003710407
 H          5.0643346694        2.6244316994        1.0748817807
 H          1.9755489694        1.8606085899       -0.3348828894
 H          3.7230093889       -0.7878851903        1.3933260807
 H          2.6584798985       -2.9587994602        1.9055638207
 H          0.3733616685       -3.4354308898        1.1173785407
 H         -1.5120278314       -2.8693380795       -0.0358455094
 C         -1.2268992112       -1.8689977696       -1.8999959594
 C         -0.6170452013       -3.0357528097       -2.6137530593
 C         -2.1015539913       -2.8304148995       -2.6435612094
 H         -2.5612889812       -2.5026515295       -3.5639238194
 H         -2.7197370614       -3.4972946994       -2.0599249994
 H         -0.0503797513       -2.8485831399       -3.5131016893
 H         -0.2293667515       -3.8431964398       -2.0112035093
 H         -1.0874863710       -0.8873212997       -2.3338215594
