  62
        -98.93311271
 C         -2.4409561766       -0.9973295365        0.2357127488
 C         -3.0846251851       -0.0143582956        1.0244105501
 C         -3.4404469303        1.2576554763        0.3662532080
 C         -3.1001408547        1.4315303495       -0.9241458835
 C         -3.3043614751        2.6488696865       -1.7859901381
 C         -2.2998971438        3.7682120367       -1.4683065613
 C         -2.0840262473        4.0351457254        0.0191103167
 H         -1.7310127284        3.1190868219        0.4972510006
 H         -1.2814949933        4.7721827032        0.1086661755
 C         -3.3004167417        4.5713643559        0.7707847936
 H         -2.9757986728        4.8001777928        1.7890320674
 H         -3.6223608461        5.5062063936        0.3069092818
 C         -4.5047444279        3.6311391576        0.8569977303
 H         -5.0625473880        3.6213762944       -0.0754368606
 H         -5.1785101492        4.0357460083        1.6177809804
 C         -4.1720015613        2.2057137045        1.2862024632
 H         -5.1054761190        1.6953520550        1.5529210867
 H         -3.5874341928        2.2369872250        2.2127312063
 H         -2.6349131243        4.6826701092       -1.9609520906
 H         -1.3341056998        3.4862717177       -1.8963726347
 H         -3.1521863332        2.3300764254       -2.8195846512
 H         -4.3258646518        3.0060163622       -1.6948777909
 O         -2.4424808721        0.4727355364       -1.6363156877
 C         -2.0834790680       -0.7474540107       -1.0901342867
 O         -1.4707424884       -1.4934376559       -1.8770041299
 O         -3.3436697098       -0.1821999839        2.2474507035
 C         -2.0367270662       -2.2953944228        0.9133936119
 C         -0.5877719941       -2.5823874581        0.6088389270
 C         -0.1295520518       -3.7520192334        0.0189158661
 C          1.2141507405       -3.9092233623       -0.2769093749
 C          2.1262662713       -2.9091410637        0.0042550628
 C          1.6780901410       -1.7383979280        0.5993706646
 C          0.3375405006       -1.5895344150        0.9087676946
 H         -0.0082847781       -0.6663032289        1.3609109508
 N          2.6046211955       -0.6966824239        0.8640743553
 S          3.0487403860        0.2024240141       -0.5018206694
 O          2.1524529828        1.3328560032       -0.6449270441
 O          3.1700972892       -0.6822146017       -1.6307352599
 C          4.6638073145        0.7785848626       -0.0134991915
 C          4.8280632218        2.0740137431        0.4354750833
 C          6.0878881759        2.4894479078        0.8384112001
 C          7.1546135980        1.6053600029        0.7897421575
 C          6.9735159491        0.3066368807        0.3372789113
 C          5.7171079148       -0.1135421456       -0.0678784001
 H          5.5305962394       -1.1091124787       -0.4348254657
 H          7.8056142630       -0.3777337872        0.2991200186
 H          8.1335734270        1.9309516658        1.1042519536
 H          6.2312636346        3.4991634534        1.1881965875
 H          3.9716537604        2.7288503129        0.4494688411
 H          2.2283917509       -0.0369529828        1.5338300251
 H          3.1680329932       -3.0100039489       -0.2508617056
 H          1.5522387691       -4.8205493969       -0.7464412955
 H         -0.8286996532       -4.5301325182       -0.2401984892
 H         -2.1201322368       -2.0745889865        1.9913912606
 C         -2.9640813107       -3.4693708422        0.6423401597
 C         -4.4034138602       -3.2481906239        0.2877942575
 C         -3.4574910725       -3.8034005136       -0.7323016934
 H         -3.5517768400       -4.8450236420       -1.0027247121
 H         -3.1400600337       -3.1685928824       -1.5444041668
 H         -5.1445536006       -3.9055379583        0.7169471971
 H         -4.7384564862       -2.2275930503        0.1711029868
 H         -2.7574088304       -4.3071142990        1.3012469614
