  62
        -98.94143503
 C         -2.5070536778       -0.9667043797       -0.4993128198
 C         -3.3822390965       -0.3217833654        0.4152888932
 C         -3.7587036262        1.0585945883        0.0986230416
 C         -3.2896428959        1.6339876086       -1.0228978640
 C         -3.5858344674        3.0310723385       -1.4952894387
 C         -2.6861281315        4.1006771116       -0.8608066558
 C         -2.9866163290        4.4152497073        0.6052627276
 H         -2.4417159884        5.3278478234        0.8545631252
 H         -4.0500314042        4.6275429420        0.7203555851
 C         -2.5708204682        3.3117350414        1.5884618793
 H         -1.8593478588        2.6376464848        1.1034581416
 H         -2.0489631495        3.7587291007        2.4379821044
 C         -3.7319653535        2.4915938906        2.1519489386
 H         -4.3711922223        3.1346198011        2.7609616899
 H         -3.3167901492        1.7159175963        2.8006877891
 C         -4.5998030104        1.8063399086        1.0883357925
 H         -5.2471578629        1.0823630179        1.5890186881
 H         -5.2223343353        2.5418170965        0.5795189226
 H         -1.6441630574        3.7846997423       -0.9577924461
 H         -2.8112421450        5.0183011031       -1.4403353406
 H         -3.4197394701        3.0368004998       -2.5746600355
 H         -4.6316413691        3.2709382529       -1.3017372039
 O         -2.4770446970        0.9773702343       -1.8892920302
 C         -2.0353367626       -0.3139664125       -1.6381030617
 O         -1.2494834218       -0.7394993019       -2.5105288940
 H          0.2859412829       -1.4515236899       -1.0728675771
 C          0.3726466761       -1.8074922092       -0.0564254923
 C         -0.7427060932       -2.3361084736        0.5780986357
 C         -0.6120756949       -2.7730081088        1.8907407680
 C          0.6015569615       -2.6759009530        2.5501118681
 C          1.7060470801       -2.1322078851        1.9187696017
 C          1.5824842977       -1.6905485297        0.6088891023
 N          2.6995421831       -1.0944774241       -0.0334049309
 S          3.0026799533        0.4886103759        0.4881528621
 O          3.0044268645        0.5040934833        1.9283925344
 O          2.0926276255        1.4101123019       -0.1626160910
 C          4.6579742770        0.7320709115       -0.1241108718
 C          5.7143979893        0.2398926947        0.6175265809
 C          7.0025831678        0.3912401501        0.1303541687
 C          7.2113346626        1.0262108500       -1.0849756376
 C          6.1405823865        1.5144006977       -1.8182732569
 C          4.8494236544        1.3655512434       -1.3363055781
 H          3.9880617543        1.7371006112       -1.8684424333
 H          6.3049872320        2.0093077840       -2.7619516621
 H          8.2147569235        1.1435189790       -1.4626880750
 H          7.8379177266        0.0146405688        0.6982844857
 H          5.5038399781       -0.2390005450        1.5592057982
 H          2.5448074857       -1.0446177308       -1.0336464383
 H          2.6480134578       -2.0229026381        2.4297684416
 H          0.6852372379       -3.0182106495        3.5703986768
 H         -1.4770421024       -3.1694363654        2.4024290490
 C         -2.0740494273       -2.3780687222       -0.1344430363
 H         -2.8258818928       -2.7325888826        0.5836049655
 C         -2.0403356514       -3.3372966153       -1.3068832606
 C         -2.1382248917       -4.8087492886       -1.0422114984
 C         -3.2849024538       -4.0835364607       -1.6786496921
 H         -3.4891387263       -4.2518757643       -2.7252441728
 H         -4.1696075069       -3.9055853251       -1.0848171953
 H         -1.5527934548       -5.4803342591       -1.6509250084
 H         -2.2468040559       -5.1256655572       -0.0161190471
 H         -1.3981828957       -3.0104660796       -2.1140452573
 O         -3.8325427959       -0.8826518082        1.4496552110
