  62
        -98.93937474
 C         -1.6237620000       -1.3794429358        0.4116777728
 C         -1.5758374808       -0.3112421192       -0.5144667403
 C         -2.4606764020        0.8353617474       -0.2346374669
 C         -3.2219568605        0.8329803944        0.8727083632
 C         -4.1472061627        1.9101345558        1.3812009627
 C         -5.0551209438        2.6076996507        0.3590308234
 C         -5.5287413916        1.7196336866       -0.8007115340
 H         -5.3041734242        0.6730381069       -0.5877290837
 H         -6.6128191410        1.8067183444       -0.8944643938
 C         -4.9097588194        2.1115440310       -2.1445967684
 H         -4.9206505540        3.2002972307       -2.2314526670
 H         -5.5348998121        1.7143935727       -2.9480577755
 C         -3.4883816219        1.6048613931       -2.3857184677
 H         -3.1300612854        2.0429086165       -3.3205726212
 H         -3.5015523902        0.5203892280       -2.5251646149
 C         -2.4742996600        1.9209191414       -1.2736321398
 H         -1.4777743661        1.9274477158       -1.7240939832
 H         -2.6643276117        2.8986667310       -0.8371144804
 H         -5.9211418397        2.9793009004        0.9093172509
 H         -4.5458931794        3.4802361703       -0.0479109436
 H         -4.7614888252        1.4196812729        2.1400388661
 H         -3.5432306999        2.6636581262        1.8949162280
 O         -3.2184927359       -0.2087009347        1.7511380206
 C         -2.4373608010       -1.3296925038        1.5465794923
 O         -2.5519368178       -2.2025891799        2.4289925942
 O         -0.8341447781       -0.2909220458       -1.5318194019
 C         -0.7580238749       -2.6212677018        0.2533462516
 C          0.6711966837       -2.2102142620        0.5068559070
 C          1.1555363832       -2.1690815714        1.8112675179
 C          2.4268050558       -1.6950920658        2.0784960897
 C          3.2302898076       -1.2222103673        1.0549598190
 C          2.7472000294       -1.2455290846       -0.2462498645
 C          1.4895357623       -1.7651731498       -0.5191016215
 H          1.1282945160       -1.7684496642       -1.5346962353
 N          3.5213089076       -0.6932220680       -1.2834631512
 S          4.1705866914        0.8215145921       -0.9846471739
 O          4.2031143280        1.4901092509       -2.2672708993
 O          5.4500310668        0.6683256108       -0.3350028386
 C          3.0466566446        1.6535621458        0.1306625470
 C          1.6944999976        1.6784175455       -0.1493859024
 C          0.8423827383        2.3240064698        0.7324837193
 C          1.3501679661        2.9401851781        1.8653555289
 C          2.7110157394        2.9151003795        2.1270286703
 C          3.5672779397        2.2629824987        1.2549036716
 H          4.6300390111        2.2064542172        1.4264410237
 H          3.1049927047        3.3950214267        3.0083520079
 H          0.6791389697        3.4389635604        2.5468259728
 H         -0.2175897066        2.3282829459        0.5314224807
 H          1.3030009145        1.1877766754       -1.0270052274
 H          3.0506742973       -0.7044811254       -2.1774748368
 H          4.2149919770       -0.8260574171        1.2450848326
 H          2.7917354427       -1.6781312152        3.0940218524
 H          0.5134704268       -2.4981248847        2.6162924364
 H         -1.0655895736       -3.3059165429        1.0541574264
 C         -0.9742123100       -3.3046900110       -1.0806541544
 C         -0.4681369022       -4.7014321573       -1.2749202484
 C         -1.9408602100       -4.4454812125       -1.1691843782
 H         -2.5462628177       -4.5396316517       -2.0584299451
 H         -2.4487490033       -4.7430654610       -0.2633100324
 H         -0.0613212580       -4.9750240614       -2.2364678364
 H          0.0261173055       -5.1722212187       -0.4385851467
 H         -0.9342473441       -2.6300193969       -1.9262769973
