  62
        -98.94757349
 C          1.1324830942        1.1670717429        0.4499438007
 C          1.5579420219        0.4693409187       -0.7059786019
 C          2.3494781211       -0.7467625976       -0.4606782273
 C          2.5194060201       -1.1798116765        0.8013864943
 C          3.3331242776       -2.3781754371        1.1944442933
 C          4.7830267703       -1.9813458236        1.5074501132
 C          5.4246364066       -1.0905709384        0.4429564065
 H          4.9090760770       -0.1274513301        0.4268228793
 H          6.4522748581       -0.8981358239        0.7589688136
 C          5.4285463694       -1.6883048165       -0.9711552883
 H          5.2689464597       -2.7657990842       -0.9171674689
 H          6.4138404253       -1.5286205458       -1.4139642837
 C          4.4053166429       -1.0708212551       -1.9266192208
 H          4.6446276149       -1.4026685706       -2.9402296481
 H          4.4974482478        0.0179174836       -1.9081823748
 C          2.9402341975       -1.4382672387       -1.6581453879
 H          2.3483864911       -1.1072204572       -2.5164493185
 H          2.8525464204       -2.5233211401       -1.5715620700
 H          4.7961596355       -1.4414952131        2.4572952250
 H          5.3723874113       -2.8922750578        1.6270111253
 H          2.8854291958       -2.8212185500        2.0858662301
 H          3.3122188567       -3.1092021249        0.3884932848
 O          2.0020439788       -0.5375283375        1.8816806918
 C          1.3417112771        0.6729328050        1.7379104160
 O          0.9925931802        1.1995823607        2.8143497876
 O          1.3096422668        0.8437074922       -1.8802242429
 C          0.4061196378        2.4950231113        0.3191282553
 C         -0.9286174700        2.2841594879       -0.3539809482
 C         -1.2785743588        2.8596383032       -1.5678711248
 C         -2.5246543105        2.6193779229       -2.1205325898
 C         -3.4411912562        1.8089860310       -1.4773551260
 C         -3.1043013080        1.2346461542       -0.2557668537
 C         -1.8547556665        1.4737450307        0.2934448906
 H         -1.6012232521        1.0329138617        1.2472004183
 N         -4.0342080545        0.4392573635        0.4351968770
 S         -3.5660080596       -0.9810075215        1.1764616916
 O         -4.8123648298       -1.6675171586        1.4402618151
 O         -2.7375500919       -0.7065446824        2.3220478516
 C         -2.6502573766       -1.8688595114       -0.0675814142
 C         -1.2720050910       -1.8892565106       -0.0273554367
 C         -0.5844641880       -2.5590961513       -1.0268863716
 C         -1.2820691611       -3.1834735712       -2.0485157546
 C         -2.6683161123       -3.1533785625       -2.0758321210
 C         -3.3608530339       -2.4899155392       -1.0770854676
 H         -4.4379230171       -2.4577878986       -1.0498942638
 H         -3.2076337565       -3.6436795427       -2.8700806467
 H         -0.7386620595       -3.6977121563       -2.8252114981
 H          0.4925624750       -2.5765609751       -1.0019458576
 H         -0.7581634534       -1.3899686266        0.7801652493
 H         -4.9133554502        0.3165281116       -0.0464774219
 H         -4.4138844888        1.6264713818       -1.9077981593
 H         -2.7839426634        3.0684770759       -3.0670386495
 H         -0.5754142126        3.4908875245       -2.0844863664
 H          0.2084173711        2.8302256857        1.3477894200
 C          1.2872813358        3.5184577517       -0.3658420492
 C          1.0353934608        4.9799084780       -0.1539064117
 C          2.2361021327        4.3289469037        0.4628193144
 H          3.2115922635        4.5544599755        0.0584365134
 H          2.2361740150        4.1579530892        1.5299662094
 H          1.1884756204        5.6563954022       -0.9808997209
 H          0.2193198465        5.2558489124        0.4967707833
 H          1.6321094630        3.1939323034       -1.3402680614
