  62
        -98.92793264
 C         -2.3239641383       -1.3811104092        0.2168021262
 C         -2.9444869876       -0.4309621172        1.0646142880
 C         -3.7179736144        0.6281521232        0.4064187455
 C         -3.7788769063        0.6660779804       -0.9367090709
 C         -4.5568716754        1.6450088924       -1.7756544620
 C         -4.0963362685        3.1139791682       -1.7080194913
 C         -4.8485703347        3.9656568936       -0.6778493379
 H         -5.0338017507        4.9523388184       -1.1070671752
 H         -5.8247002920        3.5147582505       -0.4950507815
 C         -4.1307159263        4.1887326947        0.6566307306
 H         -3.3561286089        4.9475625613        0.5231070016
 H         -4.8600209978        4.5843378047        1.3668666240
 C         -3.4614897075        2.9582618698        1.2698612638
 H         -3.1696247461        3.2038083341        2.2932578077
 H         -2.5348260230        2.7375890409        0.7325027514
 C         -4.3327972900        1.6867501026        1.2750593896
 H         -4.3818106943        1.2742514232        2.2847990946
 H         -5.3455889007        1.9132338790        0.9455229109
 H         -3.0223089702        3.1503375425       -1.5240567230
 H         -4.2682543771        3.5446041457       -2.6957815166
 H         -4.4583018359        1.2885026713       -2.8028990954
 H         -5.6117819192        1.5830395993       -1.4990842804
 O         -3.1406011415       -0.2445827956       -1.7179145439
 C         -2.3799498356       -1.2728033750       -1.1743030860
 O         -1.8319713576       -1.9926635397       -2.0253043736
 O         -2.8598726116       -0.4694588419        2.3234325460
 C         -1.4948696742       -2.4775245364        0.8772223509
 C         -0.0609184582       -2.2686986399        0.4592141711
 C          0.6081253169       -2.9166135150       -0.5714321011
 C          1.9008490396       -2.5514072434       -0.9103882248
 C          2.5550510603       -1.5297230527       -0.2484529688
 C          1.8920725374       -0.8598999233        0.7712391325
 C          0.6077749174       -1.2401553897        1.1201748422
 H          0.0920919986       -0.7037134914        1.9080029182
 N          2.5363556869        0.2060693561        1.4358043952
 S          2.9509603717        1.5163223222        0.4623830141
 O          3.0143610202        2.6525601123        1.3564885065
 O          2.0568591350        1.6381119303       -0.6676012477
 C          4.5960649402        1.1207951063       -0.0905322149
 C          5.5744442992        0.9328189926        0.8663759847
 C          6.8605909216        0.6215229422        0.4553634836
 C          7.1453431693        0.5072066471       -0.8974142192
 C          6.1527227117        0.7031135184       -1.8454979844
 C          4.8633423033        1.0133007808       -1.4410948694
 H          4.0570316646        1.1665954624       -2.1407733943
 H          6.3756212596        0.6140927453       -2.8966255313
 H          8.1468934726        0.2639696264       -1.2152190738
 H          7.6352237071        0.4685774964        1.1893578897
 H          5.3106202757        1.0356727809        1.9056081721
 H          2.0177417667        0.5374064168        2.2379681984
 H          3.5574174991       -1.2407287803       -0.5192463285
 H          2.4010977085       -3.0688223159       -1.7149415225
 H          0.1200503552       -3.6839634165       -1.1440285999
 H         -1.5421086197       -2.2277952574        1.9493428807
 C         -2.1545774062       -3.8435322964        0.7665619745
 C         -2.2382122528       -4.6939980646       -0.4636919365
 C         -1.3978428525       -5.1358210740        0.6965892510
 H         -1.7512928065       -5.9635242135        1.2933312759
 H         -0.3246019759       -5.0881153866        0.6051330907
 H         -3.1708821996       -5.2107140442       -0.6420254185
 H         -1.7749043153       -4.3372701220       -1.3680598553
 H         -3.0492680057       -3.8550414746        1.3853431717
