  62
        -98.94485621
 C         -2.1835015070       -1.3367292881        0.1517352850
 C         -2.1039694572       -0.5125287771       -0.9967347691
 C         -2.9347958016        0.7014010981       -0.9744784207
 C         -3.7173506097        0.9543429621        0.0895666855
 C         -4.5564903226        2.1857653542        0.2667522158
 C         -3.7747750916        3.2880074587        0.9959202989
 C         -2.3797825779        3.5386412944        0.4227738877
 H         -1.9342063184        4.3502110431        1.0020227427
 H         -1.7668648569        2.6488627841        0.5847364809
 C         -2.3622445718        3.9061120883       -1.0681073552
 H         -3.3549302851        4.2327888794       -1.3800062912
 H         -1.6853141388        4.7508127496       -1.2151890105
 C         -1.8870461776        2.7861507226       -1.9961415300
 H         -1.7130592893        3.2163319287       -2.9862416731
 H         -0.9334144685        2.3885990434       -1.6396829187
 C         -2.8564366044        1.6103779245       -2.1690264862
 H         -3.8466668224        1.9835872905       -2.4371147517
 H         -2.4878480869        0.9934699356       -2.9938401705
 H         -4.3589868906        4.2091090801        0.9563720683
 H         -3.6658918378        2.9988786507        2.0436491864
 H         -4.8832082979        2.5411518293       -0.7086020508
 H         -5.4342398877        1.9220953346        0.8590375834
 O         -3.7905761599        0.1264695571        1.1617702412
 C         -3.0239899866       -1.0228500556        1.2256700468
 O         -3.1797989538       -1.6812997137        2.2729668290
 O         -1.3850620110       -0.7547471409       -2.0031654732
 C         -1.3711493473       -2.6146784492        0.3059054825
 C          0.0711934831       -2.2790082352        0.6034681503
 C          0.5547019789       -2.3587823439        1.9052763065
 C          1.8695364437       -2.0361328498        2.1905963624
 C          2.7268311102       -1.6191494790        1.1876625673
 C          2.2467220233       -1.5146614788       -0.1114416325
 C          0.9304790595       -1.8509120847       -0.3979298993
 H          0.5606973724       -1.7481551294       -1.4062278866
 N          3.0948772064       -1.0753081107       -1.1405722926
 S          4.1633954074        0.1723814402       -0.8423953930
 O          4.4410406847        0.7493002886       -2.1384186510
 O          5.3054185718       -0.3341670246       -0.1217195730
 C          3.2856888888        1.3440644799        0.1780697979
 C          3.7287189829        1.6078535275        1.4581582565
 C          3.0307429743        2.5174619647        2.2363337408
 C          1.9096546880        3.1484453081        1.7208404540
 C          1.4815302496        2.8791970810        0.4297640504
 C          2.1709717482        1.9649210176       -0.3497878415
 H          1.8622888815        1.7343444228       -1.3574838172
 H          0.6123683853        3.3768779426        0.0302054237
 H          1.3656863110        3.8567524305        2.3255878550
 H          3.3631973480        2.7312866917        3.2393346956
 H          4.6101930304        1.1017724697        1.8167977814
 H          2.6293209807       -0.9616392600       -2.0288989659
 H          3.7579608506       -1.3805638273        1.3907506868
 H          2.2328583900       -2.1120274275        3.2040655580
 H         -0.1146047229       -2.6688577297        2.6950631760
 H         -1.7843044091       -3.1198534802        1.1887108769
 C         -1.5143880186       -3.5430467941       -0.8840086447
 C         -1.1453066655       -4.9861813039       -0.7259873121
 C         -2.5841711057       -4.5911429008       -0.8665330011
 H         -3.0961265626       -4.8204810536       -1.7891674703
 H         -3.2168191771       -4.6457774164        0.0076626847
 H         -0.6666933507       -5.4898502902       -1.5518347609
 H         -0.8014485178       -5.3098324297        0.2448860046
 H         -1.3053095970       -3.0703580089       -1.8343417326
