  62
        -98.94554788
 C         -1.7997994690       -1.2314260159        0.3964626900
 C         -1.6180153650       -0.0404380591       -0.3487076405
 C         -2.4280217251        1.1069803685        0.0831579627
 C         -3.2584067786        0.9853189536        1.1346161944
 C         -4.1396026776        2.0678607777        1.6967944625
 C         -5.4775620415        2.2260573408        0.9611185670
 C         -5.3885651832        2.8659767894       -0.4251120402
 H         -6.4077206859        3.1150779059       -0.7274052172
 H         -4.8323280438        3.8014882102       -0.3568707373
 C         -4.7609816524        1.9671798172       -1.4998436380
 H         -4.7670572144        0.9302906827       -1.1558414296
 H         -5.3686052504        2.0065538558       -2.4066530769
 C         -3.3342914444        2.3502734929       -1.8929867640
 H         -2.9759744881        1.6255485479       -2.6281747730
 H         -3.3359906796        3.3362004172       -2.3629538594
 C         -2.3429033983        2.3682375193       -0.7224389067
 H         -2.5216942638        3.2380244344       -0.0905210110
 H         -1.3310202966        2.4351009865       -1.1292577131
 H         -5.9492622038        1.2439336358        0.8799296268
 H         -6.1196145114        2.8515002345        1.5857298134
 H         -4.3475712618        1.7930360646        2.7333140617
 H         -3.6049387242        3.0183466926        1.6912252069
 O         -3.3807305055       -0.1698648592        1.8423279585
 C         -2.6680760573       -1.3051142049        1.4844451148
 O         -2.8829939282       -2.2969745142        2.2116019562
 O         -0.8208447178        0.0655629990       -1.3139263240
 C         -1.0303396246       -2.4827031127        0.0174632328
 C          0.4575323895       -2.2242037446        0.0073560517
 C          1.3160483766       -2.8124510098       -0.9135742329
 C          2.6752035621       -2.5522793554       -0.8754105454
 C          3.2076276026       -1.6932250087        0.0679764192
 C          2.3566292203       -1.0943057726        0.9882375242
 C          0.9993729517       -1.3757155939        0.9636487100
 H          0.3446025472       -0.9109877427        1.6911136541
 N          2.8776184438       -0.1888742614        1.9275697915
 S          3.9958776042        0.9352720752        1.3887422273
 O          5.3173420961        0.3595601562        1.4506922145
 O          3.7863154596        2.1025415785        2.2183016632
 C          3.5844915367        1.2887717015       -0.3124041670
 C          4.5811519907        1.2391516588       -1.2664032577
 C          4.2594037597        1.5034247099       -2.5877606214
 C          2.9496987408        1.7986929582       -2.9327121252
 C          1.9602394747        1.8458517596       -1.9631099622
 C          2.2788851264        1.5965482057       -0.6386336814
 H          1.5189710011        1.6231626026        0.1264931039
 H          0.9350441589        2.0455529795       -2.2297912214
 H          2.6943751017        1.9900440431       -3.9630001448
 H          5.0273239457        1.4687135095       -3.3436872562
 H          5.5820734886        0.9871142383       -0.9553438932
 H          2.1768544831        0.2475301463        2.5082259385
 H          4.2630337471       -1.4766456237        0.1090758659
 H          3.3289689683       -3.0194166201       -1.5956396501
 H          0.9194849554       -3.4752072355       -1.6649389658
 H         -1.2423925089       -3.2217646052        0.8046627402
 C         -1.5463102144       -3.0181817347       -1.3041172658
 C         -1.5901370540       -4.4930043897       -1.5647961487
 C         -2.8610480890       -3.7363850804       -1.3251104241
 H         -3.5294718072       -3.5682736266       -2.1562425017
 H         -3.3667737835       -3.8685822419       -0.3791607849
 H         -1.3886927031       -4.8467706360       -2.5647449226
 H         -1.2408773422       -5.1514279098       -0.7836922000
 H         -1.3243930320       -2.3563137486       -2.1333776984
