  62
        -98.94947910
 C         -1.0747709914       -1.7267544080        0.1165169780
 C         -1.7016390034       -0.9413926229        1.1125546447
 C         -2.8432817278       -0.1332848884        0.6702865818
 C         -3.2187100059       -0.1619538661       -0.6214046891
 C         -4.3603320072        0.6079510050       -1.2277121495
 C         -4.0066472582        2.0580040597       -1.5865541928
 C         -3.8990716728        3.0152535096       -0.3986940496
 H         -3.8934935404        4.0284225792       -0.8057457886
 H         -4.7865379463        2.9192382958        0.2284873916
 C         -2.6368133744        2.8249748122        0.4536343340
 H         -2.1989888991        3.8019382445        0.6751001131
 H         -1.8898328099        2.2760196386       -0.1260239696
 C         -2.8737756080        2.1232743161        1.7912695309
 H         -3.5063263447        2.7521404227        2.4223725547
 H         -1.9098711356        2.0090399020        2.2930714622
 C         -3.5253936007        0.7388205294        1.6819700513
 H         -3.4391501523        0.2446758166        2.6532458099
 H         -4.5821669613        0.8422472420        1.4358247962
 H         -3.0628772558        2.0628977648       -2.1384228100
 H         -4.7869908141        2.4284129176       -2.2558698111
 H         -4.6357040268        0.0828834586       -2.1449944218
 H         -5.2153023221        0.5967711597       -0.5504786875
 O         -2.5968510716       -0.9369382431       -1.5487769454
 C         -1.5049192750       -1.7245731632       -1.2111521663
 O         -1.0235104907       -2.3682690762       -2.1632379594
 O         -1.3252154005       -0.9166981578        2.3159168352
 C          0.1361453864       -2.5550877829        0.4941940612
 C          1.3777804420       -2.1101634441       -0.2439387798
 C          2.4812158821       -2.9422985361       -0.4032401530
 C          3.6145169653       -2.4861193965       -1.0529348465
 C          3.6843509643       -1.1943716627       -1.5442641961
 C          2.5872901814       -0.3550125209       -1.3910814653
 C          1.4534729920       -0.8195331775       -0.7436416582
 H          0.6000380039       -0.1669933747       -0.6646110411
 N          2.5986021546        0.9556719240       -1.8849979249
 S          1.6935517839        2.1595746463       -1.1667260103
 O          0.2887257967        1.9670567783       -1.4260146540
 O          2.2688053189        3.3829138308       -1.6842735373
 C          2.0484331236        2.0220075695        0.5754574098
 C          1.0980988821        1.5380566560        1.4492713637
 C          1.4278290767        1.3817014597        2.7860109455
 C          2.6976392978        1.7189836936        3.2265369579
 C          3.6397189864        2.2193856344        2.3395711435
 C          3.3169124403        2.3677116161        1.0010126443
 H          4.0192025016        2.7591818087        0.2831775651
 H          4.6243858539        2.4876944078        2.6869316744
 H          2.9520377150        1.5927542580        4.2670369427
 H          0.6880950747        0.9800920363        3.4610009980
 H          0.1165421455        1.2815621694        1.0840294514
 H          3.4858026340        1.2875690216       -2.2309572574
 H          4.5690944691       -0.8424339452       -2.0516980440
 H          4.4603662458       -3.1452837690       -1.1755928177
 H          2.4480845121       -3.9508129169       -0.0241574794
 H          0.2975790027       -2.3610868257        1.5664044811
 C         -0.1462048760       -4.0341866060        0.3089266611
 C          0.3909802888       -5.0437477277        1.2779222571
 C         -1.0712365116       -4.7182069959        1.2696158805
 H         -1.7659662235       -5.4496970670        0.8851148525
 H         -1.4680502278       -4.1239341778        2.0799179645
 H          0.7017591225       -6.0057541800        0.8989758622
 H          0.9800545749       -4.6813015355        2.1069404303
 H         -0.2170879897       -4.3132072727       -0.7363656516
