  62
        -98.94326210
 C         -1.9171618587       -1.0119294096        0.5416619200
 C         -2.8420241986       -1.0383632500       -0.5308747500
 C         -4.1762985086       -0.4902361698       -0.2392709204
 C         -4.4386694187        0.0107772907        0.9807151794
 C         -5.7341746487        0.6493213710        1.3878955989
 C         -5.7107913886        2.1640540109        1.1395327383
 C         -5.2280352185        2.5543839902       -0.2575556019
 H         -5.2822779784        3.6430477002       -0.3276244324
 H         -4.1757217585        2.2791893401       -0.3617523816
 C         -6.0316917884        1.9275693697       -1.4054844317
 H         -6.9937152484        1.5729700400       -1.0335558016
 H         -6.2368816283        2.6991833994       -2.1505344920
 C         -5.3167510584        0.7864210594       -2.1312921111
 H         -4.3145654483        1.1095800292       -2.4241331911
 H         -5.8709074383        0.5673351290       -3.0478835510
 C         -5.1903752685       -0.5261722303       -1.3479669505
 H         -6.1691577186       -0.8224208500       -0.9655422104
 H         -4.8455488585       -1.2955074806       -2.0448619801
 H         -6.7166403486        2.5558888110        1.3014738880
 H         -5.0446091986        2.6253037912        1.8724350781
 H         -6.5493745087        0.1921876808        0.8304017891
 H         -5.8876654888        0.4673228515        2.4529871790
 O         -3.5205408188        0.0355975011        1.9805319294
 C         -2.2444608888       -0.4597161990        1.7834700998
 O         -1.4981780889       -0.3600523486        2.7793654198
 H          1.0967854213        0.3081272907        1.5151783997
 C          1.1205086214        0.3721310302        0.4349368997
 C          0.3447473414       -0.5043911901       -0.3116038600
 C          0.3648876315       -0.3982969707       -1.6975291700
 C          1.1444300716        0.5644588590       -2.3141490504
 C          1.9248734716        1.4298107392       -1.5676950907
 C          1.9070807815        1.3334498699       -0.1828863207
 N          2.7356338415        2.1863330402        0.5791723190
 S          4.3777854515        1.9995892699        0.2785271092
 O          5.0499761714        2.4625223804        1.4715447391
 O          4.7157267816        2.6801170594       -0.9454425310
 C          4.5747446314        0.2381805898        0.0766982401
 C          4.5309546412       -0.5550038696        1.2061373804
 C          4.5745917212       -1.9319160697        1.0606481610
 C          4.6492930313       -2.4893132503       -0.2068914087
 C          4.6954476914       -1.6791244308       -1.3305035391
 C          4.6562481115       -0.3011128907       -1.1910150297
 H          4.6895131816        0.3635920289       -2.0382147800
 H          4.7538531515       -2.1160169412       -2.3141290889
 H          4.6710816112       -3.5620282103       -0.3179975682
 H          4.5416109711       -2.5646676093        1.9333953413
 H          4.4741241512       -0.0853317292        2.1754295502
 H          2.5616189314        2.1183318306        1.5723054190
 H          2.5512051617        2.1743838490       -2.0322846310
 H          1.1471966317        0.6403661385       -3.3908424204
 H         -0.2537411685       -1.0575499510       -2.2846851798
 C         -0.4937931287       -1.5321136597        0.4088355704
 H         -0.1128903788       -1.6065167093        1.4361427505
 C         -0.4050254087       -2.9014082000       -0.2337583590
 C          0.8947604612       -3.6429322601       -0.1540168685
 C         -0.2863739489       -4.1119075096        0.6400868216
 H         -0.7884782689       -5.0175792998        0.3344292419
 H         -0.2776280090       -3.9594474892        1.7097502015
 H          1.7072906112       -3.1650363899        0.3730196413
 H          1.2056820412       -4.2276130905       -1.0056260982
 H         -0.9895361187       -2.9978223904       -1.1382984090
 O         -2.5912029785       -1.4961547206       -1.6755181898
