  62
        -98.93349783
 C         -2.0089844097       -1.5220027413        0.4483616942
 C         -2.0860327049       -0.3250752344        1.2042306151
 C         -3.1952885500        0.5903544270        0.8944665909
 C         -4.0637733935        0.2603981376       -0.0765380565
 C         -5.2866936007        1.0101703866       -0.5435012195
 C         -5.1780456614        2.5347353746       -0.6762441330
 C         -3.8023282889        3.0496908398       -1.1241921749
 H         -3.1829185809        2.2170879776       -1.4621140213
 H         -3.9353516389        3.7229868684       -1.9729618283
 C         -3.0666224688        3.8175313993       -0.0237936304
 H         -2.3104628441        4.4553965950       -0.4872670273
 H         -3.7784894234        4.4729185918        0.4828617977
 C         -2.3576246762        2.9494749345        1.0145724135
 H         -1.5030164493        2.4448543065        0.5562735061
 H         -1.9672444179        3.6094836470        1.7929848303
 C         -3.2288285646        1.8707565802        1.6785142743
 H         -4.2463303876        2.2220126608        1.8323838383
 H         -2.7907840645        1.6371466514        2.6527741383
 H         -5.9359169093        2.8417786910       -1.3991836137
 H         -5.4425102745        3.0027667185        0.2709300155
 H         -5.5318338285        0.5749880037       -1.5154785347
 H         -6.1118106052        0.7679873161        0.1329533926
 O         -3.9480934882       -0.8957905976       -0.7866463519
 C         -2.9219329809       -1.8065775771       -0.5663576257
 O         -2.9575219588       -2.7901585176       -1.3271675270
 O         -1.2637652256       -0.0414828507        2.1161544246
 C         -0.8516744622       -2.4482353230        0.7770286776
 C          0.3642404041       -2.0231427007       -0.0057504845
 C          0.3186851064       -1.9010975372       -1.3914249269
 C          1.4328053228       -1.4800252676       -2.0940466608
 C          2.6060017049       -1.1597447457       -1.4325043195
 C          2.6551793929       -1.2600842167       -0.0486723794
 C          1.5386576164       -1.6958613831        0.6544010753
 H          1.5780182902       -1.7623083368        1.7329081672
 N          3.8353896338       -0.9155475449        0.6314707461
 S          4.6024416530        0.5093113707        0.2004679740
 O          5.3482563006        0.3052359473       -1.0158889417
 O          5.3762969747        0.8843147730        1.3620152740
 C          3.2864933391        1.6801929702       -0.0798809400
 C          3.0446025431        2.1590937473       -1.3511325055
 C          1.9932435940        3.0408005195       -1.5451154247
 C          1.2061847516        3.4243651512       -0.4705646564
 C          1.4639282904        2.9368976970        0.8016455726
 C          2.5121001793        2.0541570784        1.0005256212
 H          2.7396634151        1.6618751833        1.9786544444
 H          0.8477682807        3.2317539849        1.6357298914
 H          0.3861886702        4.1086412907       -0.6226228392
 H          1.7892587181        3.4232198622       -2.5323447874
 H          3.6822521684        1.8389325456       -2.1589084788
 H          3.7668139655       -0.9973042569        1.6354115538
 H          3.4828176213       -0.8335365114       -1.9675005588
 H          1.3878768539       -1.3973018029       -3.1694138410
 H         -0.6001822528       -2.1394590096       -1.9067003968
 H         -0.6375973840       -2.2607802079        1.8414662357
 C         -1.1804342477       -3.9265466461        0.6376922619
 C         -0.5700034401       -4.8217445431       -0.3944193208
 C         -0.1623872638       -4.9527523694        1.0404438659
 H         -0.4880908228       -5.8173903081        1.5985492659
 H          0.8200523408       -4.5954941380        1.3118286571
 H         -1.2008690600       -5.5817257145       -0.8294120945
 H          0.1398876971       -4.3992068091       -1.0876804363
 H         -2.2116254740       -4.1380886184        0.9002272251
