  62
        -98.94060455
 C         -2.6429252741       -1.2706258459       -0.2927472229
 C         -2.2892419085       -0.0773971753       -0.9678250003
 C         -3.3436888099        0.9440590230       -1.0549790855
 C         -4.5514461783        0.6960771848       -0.5165824908
 C         -5.6949189932        1.6675068875       -0.4860395649
 C         -5.6715944372        2.5106445418        0.7965652746
 C         -4.3084382963        3.1312689131        1.1033532545
 H         -4.4193461724        3.7280766113        2.0113746453
 H         -3.5942756033        2.3355482234        1.3293814040
 C         -3.7443230548        4.0116502890       -0.0205402413
 H         -3.3490793128        4.9296710136        0.4194313148
 H         -4.5446377317        4.2977640856       -0.7040323299
 C         -2.6034913605        3.3735450963       -0.8156443318
 H         -2.1401805009        4.1519738733       -1.4280120676
 H         -1.8380154738        3.0027001126       -0.1280673752
 C         -3.0039371373        2.2293080823       -1.7556674731
 H         -3.8284985508        2.5503598449       -2.3953738998
 H         -2.1415110520        2.0054484654       -2.3902831013
 H         -6.4197701588        3.3000053658        0.7048630972
 H         -5.9526168992        1.8713967679        1.6366736630
 H         -6.6273468634        1.1016529747       -0.5209729109
 H         -5.6398465972        2.3139543427       -1.3595859954
 O         -4.8562281745       -0.4667017245        0.1139969639
 C         -3.9097067987       -1.4660981759        0.2599463061
 O         -4.3111874456       -2.4669382931        0.8870874506
 O         -1.1575601225        0.1290125564       -1.4802750420
 C         -1.6235921242       -2.3824571136       -0.1037258991
 C         -0.5041997996       -1.8507999495        0.7582224581
 C         -0.7755461377       -1.5627275675        2.0937045100
 C          0.1979709269       -1.0220488516        2.9110232283
 C          1.4626202258       -0.7538388399        2.4150352693
 C          1.7404766290       -1.0304072458        1.0841010247
 C          0.7614403055       -1.5827000412        0.2655528636
 H          0.9877169315       -1.7809499287       -0.7700080531
 N          3.0257773714       -0.7767699166        0.5682130225
 S          3.7732114547        0.6729210435        1.0098024548
 O          4.3338016035        0.5119191138        2.3287989992
 O          2.8625137132        1.7837663284        0.8446344996
 C          5.0834924111        0.7492659207       -0.1953561069
 C          4.8510258159        1.3863098350       -1.3997062984
 C          5.8622012120        1.4171693142       -2.3471270026
 C          7.0800390775        0.8109405478       -2.0768922226
 C          7.2979979201        0.1754757519       -0.8635546253
 C          6.2916426114        0.1417460863        0.0886388708
 H          6.4167162446       -0.3325122269        1.0479103956
 H          8.2470408599       -0.2922230410       -0.6568709664
 H          7.8646309208        0.8368640225       -2.8164972147
 H          5.6961252041        1.9125807301       -3.2902630725
 H          3.8917946452        1.8515956593       -1.5643529196
 H          3.0505109929       -0.8913639794       -0.4364753682
 H          2.2278908765       -0.3195828416        3.0378370742
 H         -0.0274019640       -0.8018726332        3.9440717268
 H         -1.7680971338       -1.7595557529        2.4769833704
 H         -2.1391128184       -3.1726916361        0.4589557842
 C         -1.1720840260       -2.9460777886       -1.4340019225
 C         -0.5030172074       -4.2860899551       -1.4806209204
 C         -1.8960619596       -4.1247393441       -2.0087353556
 H         -2.0515716421       -4.1622920321       -3.0765166224
 H         -2.7138662281       -4.5353324788       -1.4346539412
 H          0.2983849006       -4.4398714073       -2.1871012820
 H         -0.3725245093       -4.8091947505       -0.5454216882
 H         -0.8397189146       -2.1831425739       -2.1275668987
