  62
        -98.94357493
 C          1.8379131939        0.2967338056       -0.2801248415
 C          2.9784567607        0.5320706230       -1.0837637861
 C          4.2613420543        0.5791652051       -0.3735933924
 C          4.2896476206        0.4268712598        0.9632186082
 C          5.5160457935        0.4834139421        1.8334392734
 C          6.2898249925       -0.8397241305        1.9125625354
 C          7.0670661173       -1.2159168204        0.6504815250
 H          7.6960842861       -0.3777761574        0.3488272925
 H          7.7304160723       -2.0412031820        0.9169136796
 C          6.1862722634       -1.6520068560       -0.5286825351
 H          6.5990264316       -2.5591282883       -0.9758340529
 H          5.1869295533       -1.9008777418       -0.1645643087
 C          6.0612202019       -0.6142341572       -1.6441335154
 H          5.3871392519       -1.0109742435       -2.4076017025
 H          7.0372692148       -0.4542958737       -2.1077062105
 C          5.5108298287        0.7424572484       -1.1854216233
 H          6.2675784083        1.2825614287       -0.6167154515
 H          5.2560904481        1.3270981665       -2.0729905819
 H          5.5888991607       -1.6398616006        2.1608702928
 H          7.0002676924       -0.7521099477        2.7378075441
 H          5.1718429006        0.7413345328        2.8372939159
 H          6.1795523363        1.2734296736        1.4803212107
 O          3.1672111422        0.2202324247        1.7021850349
 C          1.9183187423        0.1343823394        1.1031051654
 O          0.9819992708       -0.0787137563        1.8954940775
 O          2.9252058175        0.7053247923       -2.3315353056
 C          0.4745691941        0.2245732774       -0.9410127527
 C         -0.4547241973        1.2667437199       -0.3693030015
 C          0.0245850824        2.5551347985       -0.1450572453
 C         -0.7971618912        3.5350572184        0.3752988637
 C         -2.1221201916        3.2586731137        0.6638438918
 C         -2.6162961395        1.9824441604        0.4284135105
 C         -1.7829601286        0.9948941409       -0.0805177834
 H         -2.1866781644        0.0116138338       -0.2546341468
 N         -3.9513546779        1.6677825828        0.7183891238
 S         -4.8249362725        0.6746939580       -0.3036589473
 O         -4.4249273197        0.8401921346       -1.6814111633
 O         -6.2096197785        0.9762474056       -0.0066890750
 C         -4.4728574111       -0.9812667105        0.2465155664
 C         -4.3301162954       -1.2265333710        1.5977161143
 C         -4.1025514878       -2.5263437336        2.0206146866
 C         -4.0312298051       -3.5545925843        1.0929758421
 C         -4.1832089520       -3.2927531276       -0.2597336217
 C         -4.4063784043       -1.9939227713       -0.6898521633
 H         -4.5187578418       -1.7436577765       -1.7328817614
 H         -4.1273651586       -4.0935202594       -0.9802029827
 H         -3.8545446401       -4.5652445593        1.4259287134
 H         -3.9801816292       -2.7330280918        3.0716706643
 H         -4.3873529464       -0.4050067076        2.2920693865
 H         -4.5075952609        2.4366804393        1.0624633847
 H         -2.7669639601        4.0239439601        1.0685453119
 H         -0.4063975358        4.5260194002        0.5518790041
 H          1.0570654940        2.7769336346       -0.3788866634
 H          0.6484860302        0.4724743363       -1.9995577851
 C         -0.0721673035       -1.1855120964       -0.8564619279
 C         -0.9816929362       -1.7148379041       -1.9233928869
 C          0.4281957895       -2.2125135194       -1.8260670670
 H          0.5974329340       -3.2180915150       -1.4718043296
 H          1.1405135531       -1.8851240744       -2.5694105619
 H         -1.7801397229       -2.3799543265       -1.6310933574
 H         -1.2366850760       -1.0533501174       -2.7379233966
 H         -0.2442730147       -1.5021437157        0.1664386692
