  62
        -98.93876600
 C         -1.8690771647       -0.6848176373        0.8626575815
 C         -2.2053150822        0.6929866086        0.8045199237
 C         -3.6289681383        1.0126901794        0.6605768969
 C         -4.5316225251        0.0165472030        0.6163847227
 C         -6.0236789604        0.1756179396        0.5032620022
 C         -6.5251284683        0.3608342198       -0.9353835041
 C         -6.2174250467        1.7219395236       -1.5607672818
 H         -6.8087746369        1.7949282260       -2.4757209280
 H         -6.5559623270        2.5128463761       -0.8907422643
 C         -4.7383497443        1.9383626890       -1.9104865922
 H         -4.2220999733        0.9755864057       -1.9255655001
 H         -4.6596544538        2.3580893789       -2.9159229645
 C         -3.9944525667        2.8825893304       -0.9659239895
 H         -4.4192388801        3.8860471674       -1.0416717369
 H         -2.9502984978        2.9327547661       -1.2850082589
 C         -4.0189688150        2.4516469148        0.5064079323
 H         -3.2886967193        3.0536314113        1.0524483790
 H         -5.0065484494        2.6258748501        0.9332080278
 H         -7.6094216901        0.2276449364       -0.9219849022
 H         -6.1010604950       -0.4305555859       -1.5577844490
 H         -6.3494716592        1.0177899866        1.1144996329
 H         -6.4648863204       -0.7384396947        0.9065606094
 O         -4.1751840373       -1.2912843081        0.6927715312
 C         -2.8421717064       -1.6828908450        0.7887574488
 O         -2.6907561141       -2.9173802496        0.8027522000
 O         -1.3491915049        1.6145215438        0.8819658178
 C         -0.3937877961       -1.0091314625        1.0039863517
 C          0.2785875661       -1.1880872139       -0.3329843914
 C         -0.3042331634       -1.9294906081       -1.3551717522
 C          0.3535787328       -2.0953550177       -2.5606007870
 C          1.6102677741       -1.5509979236       -2.7599203705
 C          2.2024648168       -0.8104963517       -1.7441111734
 C          1.5239654989       -0.6170797633       -0.5490896200
 H          1.9771397137       -0.0181789854        0.2254726523
 N          3.4748104663       -0.2455662082       -1.9043580138
 S          4.5521950357       -0.2806098423       -0.6202123772
 O          5.8575598444       -0.1923560064       -1.2379928986
 O          4.3218676737       -1.4259900829        0.2276342998
 C          4.2287876543        1.2269711118        0.2678542294
 C          4.2710911635        2.4177520432       -0.4299246951
 C          4.0323230412        3.6004451859        0.2507625882
 C          3.7591127382        3.5727729122        1.6101331872
 C          3.7240250792        2.3692990252        2.2970930820
 C          3.9618017424        1.1826176305        1.6217131973
 H          3.9372725127        0.2245253875        2.1174781017
 H          3.5091247610        2.3491260013        3.3535646531
 H          3.5707233397        4.4941620427        2.1382371457
 H          4.0572306103        4.5391317097       -0.2789405969
 H          4.4894313615        2.3985193698       -1.4846022000
 H          3.9264522124       -0.4551569184       -2.7825972374
 H          2.1291018026       -1.6975840890       -3.6951638448
 H         -0.1103787710       -2.6699523213       -3.3483638957
 H         -1.2702279088       -2.3833735403       -1.1916386346
 H          0.0448175653       -0.1101439643        1.4669833697
 C         -0.1146114530       -2.1754782945        1.9418688167
 C          0.2893188324       -3.5369833353        1.4723229582
 C          1.2882386654       -2.6607513503        2.1636354830
 H          1.5889369052       -2.9172014350        3.1686329337
 H          2.0806132516       -2.2360297229        1.5635251981
 H         -0.1157818050       -4.3890022362        1.9964806535
 H          0.4001635458       -3.6969792666        0.4113651460
 H         -0.7582662879       -2.1463510571        2.8159432905
