  62
        -98.93821641
 C         -1.7678314381       -0.1578660322       -0.9057415999
 C         -2.9354611788        0.6424230605       -0.9781648894
 C         -4.2033527918       -0.0487447063       -0.6837978046
 C         -4.1951925070       -1.3585284049       -0.3814765365
 C         -5.4051510671       -2.1634831935       -0.0067886144
 C         -5.6255352855       -2.1603340109        1.5123346265
 C         -5.5773719524       -0.7673269854        2.1401856752
 H         -5.7771736483       -0.8844398859        3.2075608513
 H         -4.5647770826       -0.3683165708        2.0452251851
 C         -6.5746974039        0.2337221362        1.5404114427
 H         -7.3550682089       -0.3005558121        0.9972407917
 H         -7.0600558802        0.7752111398        2.3552280117
 C         -5.9456430326        1.2826553308        0.6214531730
 H         -6.6913974168        2.0594357131        0.4321086420
 H         -5.1026160499        1.7568100339        1.1304237090
 C         -5.4608811489        0.7726660305       -0.7416215298
 H         -6.2623572619        0.2173123628       -1.2329427923
 H         -5.2202889722        1.6456284324       -1.3556095630
 H         -4.8477327824       -2.7713500806        1.9760551533
 H         -6.5916614765       -2.6230114544        1.7221317206
 H         -6.2780656899       -1.7547344016       -0.5119932216
 H         -5.2511233123       -3.1909469625       -0.3407706258
 O         -3.0571179215       -2.0973617835       -0.3365600443
 C         -1.8258417793       -1.5174075739       -0.5850513935
 O         -0.8640321548       -2.3079096392       -0.5025694334
 H          2.1089850570       -0.0340955776       -0.2250101458
 C          1.5597232391        0.6582429597        0.3938112070
 C          0.2470423552        0.9701038350        0.0728800966
 C         -0.4556975947        1.8399473579        0.9000924335
 C          0.1510369387        2.3850980580        2.0170005330
 C          1.4712907187        2.0964835622        2.3151487263
 C          2.1827312570        1.2299852405        1.4941392386
 N          3.5212360484        0.9140426042        1.7611434347
 S          4.6050278387        0.7611429289        0.4926895257
 O          5.8970223988        1.0328820675        1.0846411534
 O          4.2266718729        1.5911537585       -0.6260508029
 C          4.5229375543       -0.9601513812        0.0488970221
 C          4.2415186202       -1.3226349980       -1.2531143250
 C          4.1916014768       -2.6689530338       -1.5783570144
 C          4.4250078493       -3.6236518140       -0.6008920784
 C          4.7112429884       -3.2430434690        0.7015928458
 C          4.7618049050       -1.8989436644        1.0328995899
 H          4.9845063485       -1.5641175959        2.0322656130
 H          4.8918549905       -3.9897065560        1.4580486332
 H          4.3824445558       -4.6705437455       -0.8569316740
 H          3.9672961774       -2.9664180202       -2.5902466271
 H          4.0615268497       -0.5486720114       -1.9832412060
 H          3.9252371824        1.3952188610        2.5511680069
 H          1.9480732048        2.5378792822        3.1772292375
 H         -0.4052182759        3.0564353484        2.6540308685
 H         -1.4746129624        2.0949340130        0.6520866153
 C         -0.3706703652        0.3782237669       -1.1676215132
 H          0.2283322057       -0.5063901761       -1.4376954337
 C         -0.3051641677        1.3349470296       -2.3513747629
 C         -0.1209438822        2.8130825314       -2.2167414119
 C          0.9989451253        1.9678634691       -2.7406406432
 H          1.2465465136        2.0315226238       -3.7898775179
 H          1.8539300308        1.8142428433       -2.0970161808
 H         -0.6622818335        3.4490547542       -2.9004485933
 H         -0.0252621789        3.2273616337       -1.2255495792
 H         -0.9440191666        1.0063937635       -3.1655340927
 O         -2.9446033455        1.8660807871       -1.2658144500
