  62
        -98.94484709
 C         -1.9433419288       -1.1172287149       -0.2392766180
 C         -3.0609812080       -1.1739619076        0.6368129867
 C         -4.2860560101       -0.5130991102        0.1776904517
 C         -4.3088777336        0.0795885263       -1.0294337339
 C         -5.4872643573        0.7743981347       -1.6553179350
 C         -5.6598158189        2.2327435645       -1.2090438834
 C         -6.1657255254        2.4191159736        0.2220243349
 H         -6.4487425797        3.4683895935        0.3271695865
 H         -7.0670289075        1.8229523793        0.3680570590
 C         -5.1365609317        2.0752192432        1.3080660746
 H         -5.1293156763        2.8627192974        2.0651252592
 H         -4.1366816753        2.0479862256        0.8681499621
 C         -5.3949444362        0.7537170720        2.0321555441
 H         -6.3322401999        0.8186416738        2.5891372278
 H         -4.5863912431        0.5941902376        2.7500718508
 C         -5.4586116957       -0.4709318930        1.1101027244
 H         -5.4229722452       -1.3696886243        1.7305660507
 H         -6.3921241982       -0.4703307052        0.5477341717
 H         -6.3768412607        2.6989496754       -1.8887945358
 H         -4.7049945591        2.7504173088       -1.3280012689
 H         -6.3988116280        0.2164544562       -1.4393788442
 H         -5.3190098994        0.7621288532       -2.7343821847
 O         -3.2278856808        0.0949218415       -1.8501659877
 C         -2.0186940755       -0.4738714996       -1.4744331148
 O         -1.1242294910       -0.3321310980       -2.3341932044
 O         -3.0348007858       -1.7614523340        1.7504325728
 C         -0.6712592355       -1.7926508042        0.2455570869
 C          0.3111989914       -0.7931727249        0.8081245401
 C          0.7063000902       -0.8510019525        2.1392588400
 C          1.6250566355        0.0537740627        2.6432775995
 C          2.1686712502        1.0317986458        1.8305541451
 C          1.7767198139        1.0989084472        0.4994390429
 C          0.8617484339        0.1872467747       -0.0054077893
 H          0.5584297161        0.2480658193       -1.0400067690
 N          2.3348635124        2.0831435794       -0.3391187572
 S          4.0091674745        2.1492582956       -0.3738308830
 O          4.4811984984        2.9065329574        0.7589160588
 O          4.3524583832        2.6804350129       -1.6742033521
 C          4.5293506988        0.4490519483       -0.2241607825
 C          5.2141452587        0.0320405486        0.8987082586
 C          5.5551013117       -1.3059591818        1.0164794858
 C          5.2020916775       -2.1992346708        0.0173040053
 C          4.5164198429       -1.7635826395       -1.1063359135
 C          4.1733071783       -0.4275750389       -1.2300108921
 H          3.6413223111       -0.0573151117       -2.0921211207
 H          4.2433189366       -2.4585928671       -1.8841682595
 H          5.4625379484       -3.2414825369        0.1125768556
 H          6.0896820936       -1.6474856798        1.8880861306
 H          5.4655411570        0.7597188268        1.6528234668
 H          1.9577879333        2.0639623828       -1.2759610046
 H          2.8847838330        1.7463924890        2.2030750721
 H          1.9210139336       -0.0026195132        3.6795174457
 H          0.2780157007       -1.6046934859        2.7835445258
 H         -0.9932185690       -2.4427395394        1.0699770796
 C         -0.0036675026       -2.6526276122       -0.8108437801
 C          0.9507811865       -3.7230790540       -0.3779587190
 C         -0.3900594616       -4.0944893020       -0.9352235040
 H         -0.4403001140       -4.5302182453       -1.9218328970
 H         -1.1401209282       -4.4711865141       -0.2550652417
 H          1.8263612748       -3.9055224499       -0.9810437989
 H          1.1121397999       -3.8499147223        0.6815237573
 H          0.2175053626       -2.1174099540       -1.7248216610
