  62
        -98.94565277
 C          1.0957950897        1.4478349232        0.7519828581
 C          1.9969207407        1.4414204188       -0.3395393695
 C          3.0020508267        0.3687525857       -0.3315822327
 C          2.9885398092       -0.5426948052        0.6580343089
 C          3.9279762939       -1.7090046964        0.7576936319
 C          3.3625262036       -2.9526189313        0.0581902599
 C          2.8303064981       -2.6870036161       -1.3494547078
 H          2.4810419237       -3.6407715798       -1.7499655090
 H          1.9618268723       -2.0271454128       -1.2843915495
 C          3.8596763352       -2.0810637300       -2.3134628821
 H          3.7926583881       -2.6016528745       -3.2710945787
 H          4.8675214711       -2.2409161468       -1.9282154610
 C          3.6600881708       -0.5924206260       -2.6018412049
 H          4.2948364349       -0.3218377419       -3.4500101681
 H          2.6237994935       -0.4098727692       -2.8977966099
 C          4.0056109025        0.3595553518       -1.4501959972
 H          5.0044498071        0.1327358465       -1.0715024072
 H          4.0132013850        1.3768022537       -1.8526142770
 H          2.5415721131       -3.3413389574        0.6618920556
 H          4.1477955374       -3.7094884853        0.0154983923
 H          4.8832139270       -1.4327171480        0.3148917750
 H          4.0812183417       -1.9358421221        1.8140180112
 O          2.0852963371       -0.5225054963        1.6720737212
 C          1.1209015118        0.4690471910        1.7456514762
 O          0.3567403077        0.3728199632        2.7270101565
 H         -1.3110307302        0.2888942240        0.2693336376
 C         -1.5270240041        1.0525357452       -0.4645997476
 C         -0.9352332000        2.3034463009       -0.3335174413
 C         -1.2222677159        3.2781174680       -1.2788131781
 C         -2.0704858830        2.9945085108       -2.3358925895
 C         -2.6625591175        1.7511925418       -2.4584148366
 C         -2.3911126243        0.7717708579       -1.5089404407
 N         -2.9651288790       -0.5066182105       -1.5949122962
 S         -3.5281278592       -1.2341206968       -0.1942105542
 O         -4.5012269760       -2.2007032154       -0.6599258891
 O         -4.0145085301       -0.2531538323        0.7478166050
 C         -2.1386432120       -2.1198230738        0.4765618690
 C         -1.4565523512       -2.9956569451       -0.3452028321
 C         -0.4223196067       -3.7449754953        0.1906607102
 C         -0.0922445863       -3.6089485612        1.5311977708
 C         -0.7800858510       -2.7192273368        2.3402216005
 C         -1.8166687962       -1.9683271468        1.8099797078
 H         -2.3679473858       -1.2585644512        2.4063445861
 H         -0.5107899906       -2.5942870335        3.3765098564
 H          0.7038795715       -4.2024212092        1.9537152105
 H          0.1215974626       -4.4340288082       -0.4354971114
 H         -1.7469415490       -3.0788240614       -1.3794231718
 H         -3.6103601504       -0.6300477154       -2.3621275725
 H         -3.3281916089        1.5353193189       -3.2804832999
 H         -2.2788408747        3.7564804332       -3.0716785222
 H         -0.7747338989        4.2546373282       -1.1963562266
 C          0.0046274966        2.5021273291        0.8313063161
 H         -0.5574309877        2.2912071495        1.7530012144
 C          0.5913570451        3.8935959859        0.9245310367
 C         -0.2108528127        5.0015099589        1.5359040285
 C          0.9652926013        4.4337869001        2.2707207742
 H          1.8596569084        5.0325496390        2.3557070800
 H          0.7785027513        3.8043372649        3.1288779834
 H         -0.1238897370        5.9936328422        1.1195121255
 H         -1.1991302562        4.7607410151        1.8983018190
 H          1.2443371725        4.1312104966        0.0933773114
 O          1.9736746764        2.2879094953       -1.2706571951
