  62
        -98.94464195
 C         -1.6864612950       -1.4193537125        0.1577605152
 C         -1.6269963250       -0.3313139980       -0.7472370486
 C         -2.9239624999        0.2198242046       -1.1702824605
 C         -4.0608327867       -0.3269294671       -0.7034611496
 C         -5.4428231612        0.1736176122       -1.0059828540
 C         -5.9018580671        1.1977117063        0.0414105145
 C         -4.8779871504        2.2986160408        0.3195079115
 H         -5.3216741806        2.9787636292        1.0499109832
 H         -3.9946809801        1.8577902820        0.7880969876
 C         -4.4471945816        3.0930020741       -0.9213881581
 H         -5.1728180392        2.9501700415       -1.7230654339
 H         -4.4435832335        4.1563898058       -0.6726921986
 C         -3.0481261957        2.7534586182       -1.4394669726
 H         -2.3263967466        2.8095005660       -0.6195942168
 H         -2.7638480892        3.5135253565       -2.1725395535
 C         -2.9010790380        1.3857203772       -2.1180939756
 H         -3.6664781723        1.2731156520       -2.8887444492
 H         -1.9194481666        1.3619557206       -2.6004215413
 H         -6.8363597204        1.6463787237       -0.3001663811
 H         -6.0996744233        0.6707582536        0.9776815908
 H         -5.4529069209        0.6223188505       -1.9972382451
 H         -6.1270621637       -0.6763869001       -0.9939368209
 O         -4.0776505160       -1.3819386124        0.1503410935
 C         -2.8986675107       -1.9370762595        0.6178879494
 O         -3.0583075682       -2.8762580672        1.4236495323
 O         -0.5557185332        0.1558297490       -1.1921296185
 C         -0.4150629137       -2.0439295507        0.7114193085
 C          0.2473879675       -1.0365757002        1.6206871740
 C         -0.3930516869       -0.6832579925        2.8066539107
 C          0.1642012736        0.2512603594        3.6571300418
 C          1.3612557208        0.8683261830        3.3330480879
 C          2.0036463830        0.5297947301        2.1499353096
 C          1.4536189258       -0.4311373054        1.3112411049
 H          1.9717108648       -0.6942892873        0.4068212273
 N          3.2263656183        1.1243814354        1.7859711306
 S          3.3044521699        1.8886643514        0.2859955807
 O          4.4605280787        2.7560771159        0.3933092348
 O          2.0571148800        2.5422316443       -0.0326153969
 C          3.6754919634        0.5878609032       -0.8690191633
 C          2.7525369098        0.2284018196       -1.8312260340
 C          3.0777898189       -0.7898303910       -2.7147576120
 C          4.3073015588       -1.4238325205       -2.6213200438
 C          5.2222534594       -1.0474080325       -1.6490813958
 C          4.9064961527       -0.0299030123       -0.7636317766
 H          5.5885279331        0.3000143838        0.0021921347
 H          6.1762694596       -1.5445824970       -1.5788216742
 H          4.5512722989       -2.2176182891       -3.3100094087
 H          2.3624493255       -1.0864003836       -3.4658481836
 H          1.7915621869        0.7193073638       -1.8513399241
 H          3.6083882191        1.7346271208        2.4957827033
 H          1.7922565076        1.6086611891        3.9907136858
 H         -0.3399422906        0.5107136441        4.5762143989
 H         -1.3360645373       -1.1546976275        3.0493177634
 H         -0.7419691239       -2.8913155457        1.3303026154
 C          0.4819638024       -2.5586662901       -0.3935473647
 C          1.5753601543       -3.5307104409       -0.0699780600
 C          0.3666852412       -3.9867908744       -0.8295087234
 H          0.4709505828       -4.2139457371       -1.8796273477
 H         -0.3549948500       -4.6081408088       -0.3191402542
 H          2.5128213367       -3.4427443319       -0.5979369446
 H          1.6751106396       -3.8440834875        0.9581541982
 H          0.6730363569       -1.8203620462       -1.1619199177
