  62
        -98.94075696
 C         -1.3610263695       -1.4703631115       -0.3836664409
 C         -2.6081109399       -1.4263715581        0.2835369390
 C         -3.4734558146       -0.2615892213        0.0161725713
 C         -3.0284431887        0.6925818880       -0.8227475661
 C         -3.7106921515        1.9769832507       -1.2137855746
 C         -3.6569434379        3.0497066855       -0.1126390160
 C         -3.9094300404        2.5356683740        1.3022688198
 H         -3.7085271816        3.3564450543        1.9960332034
 H         -3.1989368594        1.7381708551        1.5282733519
 C         -5.3286957070        2.0395800581        1.5669947649
 H         -6.0325862568        2.8565068122        1.3919603828
 H         -5.3892060259        1.7713086936        2.6249479323
 C         -5.7744841122        0.8304474707        0.7432573075
 H         -6.0150368003        1.1190251250       -0.2763287087
 H         -6.7025154689        0.4581530417        1.1871534350
 C         -4.7927476209       -0.3372931811        0.7463662809
 H         -5.3021236758       -1.2207994859        0.3423081392
 H         -4.5491482169       -0.5964845069        1.7830446192
 H         -4.3839578614        3.8272744522       -0.3530029402
 H         -2.6637471409        3.5037913375       -0.1255343698
 H         -4.7374614206        1.7742236449       -1.5047379505
 H         -3.1874764764        2.3534860346       -2.0953118122
 O         -1.8143427569        0.6130897519       -1.4354692524
 C         -0.9535602660       -0.4510716575       -1.2446551095
 O          0.1065707947       -0.3703167458       -1.8928716590
 O         -2.9921848656       -2.3267195250        1.0781737645
 C         -0.4408329974       -2.6474451272       -0.1027165120
 C          0.7325478113       -2.1213277236        0.6839428165
 C          0.6231192684       -1.9779569260        2.0641719863
 C          1.6450949194       -1.4065060720        2.7997640216
 C          2.7908460583       -0.9482903012        2.1720259768
 C          2.9015054514       -1.0750265322        0.7939902669
 C          1.8895094455       -1.6785380877        0.0607829276
 H          1.9883320349       -1.7609596465       -1.0096496641
 N          4.0460277106       -0.5672724817        0.1394570369
 S          4.2659282342        1.0914491842        0.2350683212
 O          5.3041953832        1.3973494305       -0.7229854190
 O          4.5446595920        1.4419156930        1.6054153131
 C          2.7235316456        1.8251338065       -0.2779609151
 C          1.6988034112        1.9541591717        0.6376452764
 C          0.4918502612        2.4881220764        0.2174368557
 C          0.3324567980        2.8837685985       -1.1007189560
 C          1.3695905513        2.7439465606       -2.0080163128
 C          2.5758708283        2.2037394870       -1.5964331920
 H          3.4078272573        2.0768669940       -2.2707591401
 H          1.2361877906        3.0423810101       -3.0354276780
 H         -0.6103572340        3.2927811075       -1.4280378519
 H         -0.3232920285        2.5832995398        0.9184977345
 H          1.8585646567        1.6407693498        1.6567657432
 H          4.0870465898       -0.8399977996       -0.8333209183
 H          3.5858572077       -0.4723357707        2.7228749484
 H          1.5479567755       -1.3093022350        3.8706275568
 H         -0.2832152337       -2.3080412179        2.5523835229
 H         -1.0170350480       -3.3210975695        0.5450525366
 C         -0.0529535408       -3.3935455688       -1.3615642441
 C          0.5840685304       -4.7448972132       -1.2420400487
 C         -0.8195255594       -4.6201271738       -1.7516373710
 H         -1.0063011768       -4.7987261487       -2.7999999410
 H         -1.6274684622       -4.9316177232       -1.1059646031
 H          1.3631290474       -5.0129556772       -1.9392654511
 H          0.7295986408       -5.1398280369       -0.2479240123
 H          0.2789841687       -2.7457799353       -2.1634367283
