  62
        -98.94341937
 C         -2.4872714112       -1.1226375033        0.0076851030
 C         -3.4674505970       -0.6245659206        0.9084420526
 C         -4.4600876593        0.2978756114        0.3499944717
 C         -4.4174510008        0.6068336087       -0.9583264487
 C         -5.3748646972        1.5081613239       -1.6893945801
 C         -5.0392910687        3.0015418780       -1.5751099555
 C         -5.3160153768        3.6278193155       -0.2077318434
 H         -5.2471240428        4.7103487481       -0.3318303061
 H         -6.3384866430        3.3995847383        0.0946774091
 C         -4.3410551685        3.1948075497        0.8962190197
 H         -3.4501209335        2.7530526270        0.4436011629
 H         -4.0122151448        4.0728725799        1.4565095838
 C         -4.9242573385        2.2060909434        1.9058624181
 H         -5.7332878335        2.6845374376        2.4621798752
 H         -4.1380357253        1.9388467107        2.6164320824
 C         -5.4602010640        0.9103114061        1.2833437048
 H         -5.6458671892        0.1942392746        2.0875371310
 H         -6.3978719946        1.1025493192        0.7622603277
 H         -3.9879094395        3.1442716957       -1.8354437733
 H         -5.6404063282        3.5276558341       -2.3203286925
 H         -5.3264133417        1.2237689579       -2.7427903207
 H         -6.3889700609        1.3334022968       -1.3287757579
 O         -3.4766627400        0.0966780810       -1.7939972943
 C         -2.4830024670       -0.7587704086       -1.3386734212
 O         -1.6888292740       -1.1070133313       -2.2373437566
 H          0.2501171057       -0.9603899340       -1.1912344109
 C          0.6230435857       -0.8922492759       -0.1797494576
 C         -0.1404130589       -1.4015329774        0.8613051668
 C          0.3502651200       -1.2953779532        2.1575030813
 C          1.5732336796       -0.6952085572        2.4014311527
 C          2.3290913348       -0.1863134849        1.3607123610
 C          1.8460779573       -0.2834195234        0.0622027097
 N          2.5963347317        0.2516915179       -1.0018569378
 S          4.1824304529       -0.2761246898       -1.1750886945
 O          4.5033462491       -0.0740821579       -2.5710571475
 O          4.3516585400       -1.6169916135       -0.6638299791
 C          5.1257104701        0.8714701712       -0.1928176475
 C          5.0421246685        2.2152789978       -0.5008040554
 C          5.7746928028        3.1205754360        0.2501643725
 C          6.5765529662        2.6692233756        1.2881043812
 C          6.6531257433        1.3163974346        1.5818864328
 C          5.9217126374        0.4056076647        0.8353199049
 H          5.9455008611       -0.6547508960        1.0298827897
 H          7.2777329338        0.9674858806        2.3884495995
 H          7.1453852523        3.3763345620        1.8709887145
 H          5.7179801679        4.1732462324        0.0242410865
 H          4.4112753459        2.5234112896       -1.3179174236
 H          2.1132627943        0.2009138171       -1.8879632517
 H          3.2810454653        0.2844852811        1.5443275218
 H          1.9413894499       -0.6206803371        3.4132158056
 H         -0.2395493468       -1.6798623000        2.9768754062
 C         -1.4616412471       -2.0813838365        0.5890644660
 H         -1.8813375967       -2.3897141542        1.5561956852
 C         -1.2561951071       -3.3226454454       -0.2582445701
 C         -0.6972310040       -4.5556643476        0.3832393086
 C         -2.1346658086       -4.5159433549       -0.0394211762
 H         -2.4389474555       -5.0951379502       -0.8983006913
 H         -2.8902648030       -4.4454603707        0.7293983056
 H         -0.0085087586       -5.1631259624       -0.1837788614
 H         -0.4782621809       -4.5139265811        1.4394247134
 H         -0.9584618769       -3.1065937540       -1.2763051112
 O         -3.5145786094       -0.9486336357        2.1244442821
