  62
        -98.93920177
 C         -1.0425532584       -1.3100150213       -0.2403367170
 C         -1.9567350499       -0.9702021045        0.7918157259
 C         -2.8624400422        0.1540332029        0.5260346376
 C         -2.7771235258        0.8084735033       -0.6454111361
 C         -3.5949815268        1.9960381475       -1.0808540227
 C         -5.1074885925        1.7551541913       -1.2502121138
 C         -5.9454739599        2.0955581863       -0.0114281674
 H         -5.4005345051        2.8204473034        0.5944690746
 H         -6.8653586497        2.5873496123       -0.3343238568
 C         -6.3585889220        0.9069198416        0.8618907377
 H         -7.1915463225        0.3858933738        0.3842064040
 H         -6.7216828063        1.3015711886        1.8133762625
 C         -5.2687758608       -0.1290147317        1.1389806373
 H         -5.1143999815       -0.7463593951        0.2507989376
 H         -5.6283344595       -0.8005028236        1.9212165055
 C         -3.9090373096        0.4643098533        1.5561677112
 H         -3.9920955280        1.5390806438        1.7104906589
 H         -3.5744663997        0.0059011888        2.4887024315
 H         -5.4390213122        2.3938602962       -2.0704998001
 H         -5.2801268695        0.7235163685       -1.5556705102
 H         -3.4390311799        2.8144044011       -0.3742284911
 H         -3.1764013675        2.3005046348       -2.0422525938
 O         -1.8655114362        0.4738926719       -1.5956532145
 C         -0.9840545585       -0.5816335436       -1.4281940591
 O         -0.2225655616       -0.7427174574       -2.4043109255
 H          1.6735215849       -1.0684850104       -1.3825683982
 C          2.0360101744       -1.3096527453       -0.3944038559
 C          1.2347348605       -2.0506965849        0.4625997022
 C          1.7104278807       -2.3308917724        1.7379875495
 C          2.9556326090       -1.8809565754        2.1431028129
 C          3.7460051246       -1.1313675925        1.2896406885
 C          3.2735124449       -0.8411033424        0.0170588423
 N          4.0413412934       -0.0134431596       -0.8389366022
 S          4.1036507955        1.5806461817       -0.3190437306
 O          4.5062707271        2.3606285770       -1.4668623781
 O          4.9650358778        1.6542311935        0.8335814020
 C          2.4272729849        1.9723279224        0.1520018340
 C          1.5524157955        2.4223913819       -0.8156815770
 C          0.2334284255        2.6634774164       -0.4677483297
 C         -0.1895403648        2.4303340617        0.8314241799
 C          0.6986923434        1.9688523683        1.7899092074
 C          2.0220678469        1.7406010565        1.4513244475
 H          2.7445969284        1.3924849648        2.1709223939
 H          0.3606898366        1.7811504470        2.7962998243
 H         -1.2195444842        2.6037675429        1.1002717953
 H         -0.4609725089        3.0180282283       -1.2126087279
 H          1.9163442212        2.5865307870       -1.8175844934
 H          3.6962059395       -0.0269870325       -1.7897267166
 H          4.7051217877       -0.7453517893        1.5949209514
 H          3.3111626116       -2.1087145660        3.1363927810
 H          1.0884164025       -2.8908738276        2.4206998839
 C         -0.1366939792       -2.5024148022        0.0239129948
 H         -0.5995588957       -3.0307495849        0.8679931353
 C         -0.0460036050       -3.4594797690       -1.1487042425
 C          0.3727749047       -4.8761143231       -0.8989018855
 C         -1.0462138143       -4.5679459000       -1.2699652093
 H         -1.3956395150       -4.8406446726       -2.2545182761
 H         -1.8024119354       -4.6455818602       -0.5023544159
 H          0.5781854893       -5.1646476808        0.1207544919
 H          1.0014359917       -5.3632324613       -1.6283379899
 H          0.2865826624       -2.9902773318       -2.0653752787
 O         -2.0146396346       -1.5860898238        1.8883324895
