  62
        -98.94497151
 C         -0.9918867391       -1.2035199806        0.4415138805
 C         -1.4892574296       -0.0217109604        1.0449710096
 C         -2.2442237800        0.8836971686        0.1722015090
 C         -2.3692059599        0.5960623476       -1.1357669208
 C         -3.0709782503        1.4416217465       -2.1642198215
 C         -4.5889566402        1.2228868958       -2.2263476413
 C         -5.3771275504        1.8042192464       -1.0518004717
 H         -5.1077200409        2.8526036166       -0.9201264425
 H         -6.4329637504        1.7707530457       -1.3275029617
 C         -5.1877161901        1.0505042574        0.2719446788
 H         -4.7638694697        0.0639543975        0.0701395196
 H         -6.1605741400        0.8906254073        0.7420219289
 C         -4.3048256704        1.7701636586        1.2912837083
 H         -4.7833141608        2.7038720486        1.5944761276
 H         -4.2156286901        1.1339014493        2.1753823488
 C         -2.8886189806        2.0871387788        0.7921503681
 H         -2.9140723209        2.9141488783        0.0821744174
 H         -2.2823809107        2.3794012497        1.6528044278
 H         -4.9475394504        1.6914371850       -3.1458047916
 H         -4.7838059197        0.1505705857       -2.3027868605
 H         -2.6394606101        1.1711940560       -3.1307756013
 H         -2.8601506407        2.4953926268       -1.9772265422
 O         -1.8361150994       -0.5224100626       -1.6905130700
 C         -1.1246688390       -1.4401283517       -0.9290106493
 O         -0.6871136586       -2.4028441320       -1.5865693186
 O         -1.2978852398        0.2718223006        2.2553729794
 C         -0.1457212587       -2.1270031996        1.3030883112
 C          1.1704987214       -2.3497394795        0.6028343214
 C          1.6931491619       -3.5919117896        0.2737866423
 C          2.8790912320       -3.6797222196       -0.4361426677
 C          3.5488374615       -2.5429524196       -0.8495396985
 C          3.0350030009       -1.2938962796       -0.5174444394
 C          1.8772921709       -1.2115554095        0.2341102705
 H          1.4791137005       -0.2416375795        0.4931892898
 N          3.6714837104       -0.1080842796       -0.9147302503
 S          2.7452299498        1.2347827697       -1.2975347213
 O          1.4792126900        0.8817394287       -1.8967339110
 O          3.6257778195        2.0495903295       -2.1102265219
 C          2.4981778995        2.0503532808        0.2654511881
 C          3.6039024894        2.3021101819        1.0537407179
 C          3.4266524091        2.9437024127        2.2687077774
 C          2.1547237289        3.3229746424        2.6709971971
 C          1.0559936090        3.0694175513        1.8648360473
 C          1.2267497393        2.4278728505        0.6485016378
 H          0.3934577294        2.1962215497        0.0013497180
 H          0.0651267589        3.3544658311        2.1799206171
 H          2.0153903587        3.8176035931        3.6192630968
 H          4.2778989590        3.1432177535        2.8993704573
 H          4.5744659695        1.9921785320        0.7043760081
 H          4.4446735105       -0.2296321097       -1.5524942102
 H          4.4530323215       -2.6169544796       -1.4344371084
 H          3.2744841024       -4.6504764996       -0.6947268769
 H          1.1596132723       -4.4888265196        0.5425687729
 H          0.0515050910       -1.5348509988        2.2132672207
 C         -0.8312588781       -3.4031958896        1.7618540621
 C         -2.3231668981       -3.4691172201        1.8902390522
 C         -1.6253599578       -4.2749014706        0.8378150828
 H         -1.5668352373       -5.3455111005        0.9706706836
 H         -1.7086462079       -3.9662205214       -0.1919558175
 H         -2.7452797879       -3.9831217097        2.7407292526
 H         -2.8884196385       -2.6031305006        1.5767902715
 H         -0.2621540179       -3.9101448387        2.5352042525
