  62
        -98.94576525
 C         -2.5009899800        0.0648159590        0.5606904380
 C         -2.4534495331        0.8492720079       -0.6167231597
 C         -1.9633528516        2.2224584346       -0.4506249949
 C         -1.5365895879        2.6386137240        0.7548013213
 C         -0.9817682122        3.9997724298        1.0768011247
 C          0.5019793628        4.1593799986        0.7168003756
 C          0.7970529510        4.3226587504       -0.7752397844
 H          0.1438513949        5.0894873604       -1.1938131314
 H          1.8232634873        4.6863441193       -0.8583189938
 C          0.6692185933        3.0282091674       -1.5900079446
 H          1.5196742059        2.9460177784       -2.2718185821
 H          0.7130961447        2.1679843780       -0.9185329116
 C         -0.5951379808        2.9289762145       -2.4432895160
 H         -0.6104231461        1.9426484746       -2.9140377569
 H         -0.5649898313        3.6827505311       -3.2343154347
 C         -1.9052052042        3.0993925198       -1.6659248047
 H         -2.7284972219        2.8044890141       -2.3219199718
 H         -2.0404684619        4.1431838484       -1.3822064269
 H          1.0461118922        3.2918858262        1.0996688480
 H          0.8704997753        5.0455172177        1.2394964271
 H         -1.5677431229        4.7669619258        0.5690874048
 H         -1.0929892307        4.1330368012        2.1551576475
 O         -1.5813573806        1.8482400507        1.8611652565
 C         -2.0465457018        0.5471473097        1.7879121576
 O         -2.0245461184       -0.0684564508        2.8760156432
 O         -2.8108535387        0.4351057222       -1.7509524262
 C         -2.9102664052       -1.3989698215        0.4903911986
 C         -1.8628025888       -2.1007432179       -0.3407703148
 C         -2.1221275268       -2.7820687766       -1.5213416750
 C         -1.0765466427       -3.2911834949       -2.2741868826
 C          0.2367704402       -3.1122288746       -1.8816782674
 C          0.5036303092       -2.4511758337       -0.6863957335
 C         -0.5449923573       -1.9835150730        0.0854395122
 H         -0.3299549998       -1.4759656284        1.0161121222
 N          1.8203377423       -2.2516284316       -0.2407074278
 S          2.1451259832       -0.8649195467        0.6708549025
 O          1.9751429754       -1.1922304300        2.0657397740
 O          1.3935791355        0.2625408676        0.1730916794
 C          3.8801742028       -0.6439449034        0.3221427367
 C          4.7931139360       -1.4828904810        0.9337207479
 C          6.1397746292       -1.3312445089        0.6442727949
 C          6.5489315553       -0.3488973652       -0.2457808632
 C          5.6215625713        0.4870001736       -0.8491308836
 C          4.2725427002        0.3392173100       -0.5658736118
 H          3.5143210523        0.9679445310       -1.0050397427
 H          5.9421114093        1.2523318246       -1.5373693014
 H          7.5977372517       -0.2321608865       -0.4682849303
 H          6.8639911572       -1.9771364823        1.1137215659
 H          4.4282817101       -2.2232101246        1.6265511256
 H          2.5136788826       -2.4113889095       -0.9583641902
 H          1.0498099357       -3.4776274307       -2.4903304906
 H         -1.2886765454       -3.8125258683       -3.1953711308
 H         -3.1375472999       -2.8951042039       -1.8634621284
 H         -2.8485353734       -1.7823267596        1.5193704294
 C         -4.3250145237       -1.5660979256       -0.0165910347
 C         -5.0862494786       -2.8167900225        0.3023345155
 C         -5.4571563290       -1.5243040958        0.9634962415
 H         -6.3747146954       -1.0373457470        0.6696225076
 H         -5.2064991565       -1.3901498559        2.0060382325
 H         -5.7538585274       -3.2192518968       -0.4441729385
 H         -4.5871050110       -3.5653861265        0.8989879858
 H         -4.4823530067       -1.0998578896       -0.9815750385
