  62
        -98.94431718
 C         -2.0315797873       -1.3559240563        0.0220222468
 C         -2.3471736622       -0.3873164018       -0.9613217299
 C         -3.7184383281        0.1446779018       -0.9241603179
 C         -4.5833570566       -0.3045830064        0.0023149581
 C         -5.9883456818        0.1906343751        0.1821272588
 C         -6.0451429717        1.3512717029        1.1851410712
 C         -5.0194559951        2.4522521753        0.9150419253
 H         -5.1742886753        3.2319411103        1.6640978327
 H         -4.0151634427        2.0518169039        1.0731143031
 C         -5.1039303216        3.0682668305       -0.4884991571
 H         -5.0324590093        4.1543065094       -0.3985191632
 H         -6.0737502993        2.8436960564       -0.9340332882
 C         -3.9930690764        2.6271908767       -1.4435421649
 H         -4.0189613771        3.2816771969       -2.3190537534
 H         -3.0212457592        2.7644320111       -0.9618980663
 C         -4.0825612773        1.1817494006       -1.9494936086
 H         -5.0803366318        0.9938236213       -2.3508500094
 H         -3.3588071317        1.0690618456       -2.7619305693
 H         -5.8635924986        0.9534910508        2.1862748953
 H         -7.0506012657        1.7756165103        1.1654891540
 H         -6.3824949986        0.5092433991       -0.7809026999
 H         -6.5969650572       -0.6331257038        0.5589713454
 O         -4.2517908683       -1.2445687373        0.9223395572
 C         -2.9779087156       -1.7813899749        0.9615280119
 O         -2.8104054333       -2.6277686167        1.8618789043
 H          0.3728303061        0.3047812378       -0.8099562207
 C          0.7709958237        0.0572875080        0.1627259492
 C          0.3289445263       -1.0904033344        0.8057407654
 C          0.8348770525       -1.3825043864        2.0669661551
 C          1.7555075113       -0.5432298481        2.6705381033
 C          2.1924534154        0.6006680441        2.0274772772
 C          1.6899688757        0.9017507777        0.7679228283
 N          2.1402626327        2.0567872961        0.0999480558
 S          3.8015650693        2.2236114566       -0.0412062627
 O          4.3356999249        2.7594718910        1.1862776177
 O          4.0128976863        3.0264475572       -1.2249566533
 C          4.3989217240        0.5605330499       -0.2874917698
 C          4.0321310336       -0.0933564385       -1.4471545508
 C          4.4319311271       -1.4065260382       -1.6307744667
 C          5.1827200834       -2.0426656619       -0.6540372047
 C          5.5453982287       -1.3714241200        0.5030178318
 C          5.1491190944       -0.0570316542        0.6920359808
 H          5.4082151117        0.5010261324        1.5767890911
 H          6.1304541251       -1.8682034422        1.2600562655
 H          5.4862813331       -3.0676394110       -0.7973153244
 H          4.1532587788       -1.9290404239       -2.5318416884
 H          3.4497197299        0.4310321010       -2.1879413023
 H          1.6883165412        2.1987583203       -0.7921570858
 H          2.9082356779        1.2677388009        2.4802614034
 H          2.1370924267       -0.7823602096        3.6513504224
 H          0.4903553879       -2.2692167341        2.5790760890
 C         -0.6640055442       -2.0131222672        0.1400315973
 H         -0.8115547090       -2.8762274446        0.8022296467
 C         -0.1323915600       -2.5161925292       -1.1889851980
 C          0.9497337367       -3.5517577639       -1.1894740438
 C         -0.4394641222       -3.9183248568       -1.6164003173
 H         -0.6276867241       -4.1078963570       -2.6625951181
 H         -1.0365122237       -4.5246400810       -0.9505356758
 H          1.2974794914       -3.9108207008       -0.2329085377
 H          1.7192882247       -3.4912695517       -1.9430464839
 H         -0.1073785214       -1.7581086347       -1.9600036277
 O         -1.5450843013        0.0291301774       -1.8406825238
