  62
        -98.94105337
 C         -1.7358565798        1.0688287560       -0.0006936246
 C         -2.1724621961       -0.1207177547        0.6334247652
 C         -3.6286814501       -0.2624747529        0.7851284535
 C         -4.4516113681        0.7070659767        0.3489510071
 C         -5.9522012864        0.7149335570        0.4582629755
 C         -6.6626023313       -0.0487143215       -0.6677257942
 C         -6.5483177587       -1.5719180795       -0.5939008824
 H         -6.8489760416       -1.9102365974        0.3981861778
 H         -7.2648360278       -1.9816991469       -1.3086035303
 C         -5.1529819159       -2.1195792808       -0.9255477470
 H         -4.5736935664       -1.3521840920       -1.4440948868
 H         -5.2468896660       -2.9657311010       -1.6099113982
 C         -4.3568857588       -2.6046168241        0.2861913935
 H         -4.8596792260       -3.4643172224        0.7349603775
 H         -3.3721756078       -2.9316598827       -0.0580671232
 C         -4.1473356356       -1.5405857986        1.3715160616
 H         -5.0776338325       -1.3639754284        1.9112234643
 H         -3.3985324253       -1.9126213623        2.0753700134
 H         -6.2717062233        0.2998886855       -1.6264068840
 H         -7.7212395147        0.2172851666       -0.6240324233
 H         -6.2520282055        0.3055638247        1.4233353600
 H         -6.2617012247        1.7613786823        0.4127230761
 O         -3.9923024301        1.8373851169       -0.2510162088
 C         -2.6374417265        2.0288461001       -0.4691776930
 O         -2.3640608462        3.0785156113       -1.0842834943
 H          1.7590390378       -0.1683930405        0.8774279158
 C          1.4451710686       -0.5255195616       -0.0882412531
 C          0.4175828980        0.1007973751       -0.7740743399
 C          0.0024479805       -0.4366451658       -1.9903592101
 C          0.5921779766       -1.5774948200       -2.4974963965
 C          1.6284179448       -2.1929467017       -1.8165158103
 C          2.0507790220       -1.6639961329       -0.6037216728
 N          3.0996389519       -2.2596010115        0.1096903929
 S          4.1640859300       -1.3148649048        0.9778898391
 O          5.3791685975       -2.1003878916        1.0328612333
 O          3.6028685561       -0.9455197681        2.2525969365
 C          4.4267610157        0.1440727107       -0.0175179213
 C          4.2173042233        1.3916685292        0.5331062806
 C          4.4151725792        2.5156326239       -0.2532092477
 C          4.8156391179        2.3725438431       -1.5723623610
 C          5.0297103249        1.1124015423       -2.1096008068
 C          4.8355984116       -0.0139764942       -1.3270115817
 H          5.0009878520       -1.0056902747       -1.7149939745
 H          5.3445294579        1.0051166814       -3.1350241354
 H          4.9627370150        3.2486591463       -2.1839833068
 H          4.2518691925        3.4967231290        0.1640574772
 H          3.9007691619        1.4571490197        1.5620735010
 H          3.5564944746       -3.0306043778       -0.3532019006
 H          2.0940542793       -3.0830344201       -2.2114304415
 H          0.2498425186       -1.9889088795       -3.4351634512
 H         -0.8035639764        0.0476656315       -2.5253757746
 C         -0.2651703292        1.3451699949       -0.2633682787
 H         -0.2583519536        2.0884564254       -1.0779596464
 C          0.4687878588        1.9810341794        0.9074303668
 C         -0.2422313147        2.8611502880        1.8900270456
 C          0.2721763016        1.5213707696        2.3194365687
 H          1.1330027085        1.4782282234        2.9717071520
 H         -0.4364541852        0.7265128299        2.4915743623
 H         -1.3089899071        2.9858828349        1.7724778603
 H          0.2635826494        3.7464970492        2.2446493748
 H          1.4740516773        2.2846391133        0.6305843785
 O         -1.4060879655       -1.0239369836        1.0558600777
