  62
        -98.93748635
 C         -1.2377645179       -1.3125968354        0.2296610345
 C         -2.1700033997       -0.8618459329        1.1943755850
 C         -2.8848560455        0.3926026787        0.8979106842
 C         -2.5893635983        1.0666817103       -0.2289390688
 C         -3.1194039997        2.3751140570       -0.7774440665
 C         -4.3692619055        3.0218374020       -0.1863113949
 C         -5.6670116450        2.2561560021       -0.4436224738
 H         -6.4698055535        2.7453270540        0.1123564820
 H         -5.9078157613        2.3289790711       -1.5072265838
 C         -5.6419898589        0.7738255953       -0.0793656709
 H         -4.9017935780        0.2574232521       -0.6939963435
 H         -6.6187651070        0.3511406407       -0.3301001413
 C         -5.3678829212        0.4664306677        1.3914251196
 H         -5.5300407767       -0.6048163720        1.5404304666
 H         -6.0837660646        1.0012747525        2.0187233239
 C         -3.9467200269        0.7925603416        1.8816164775
 H         -3.8520663479        1.8428951448        2.1467807477
 H         -3.7604658307        0.2087234484        2.7880852903
 H         -4.2352270453        3.2000137325        0.8766075273
 H         -4.4672776410        4.0021825694       -0.6605794008
 H         -2.2910491797        3.0863849101       -0.6953931290
 H         -3.2777315962        2.2070496379       -1.8473349117
 O         -1.6328920591        0.6275130829       -1.0962361076
 C         -0.9393095108       -0.5580022456       -0.9055986346
 O         -0.1108355169       -0.8047541458       -1.7980999885
 O         -2.3908193199       -1.4767452190        2.2730818644
 C         -0.4882551972       -2.6025963246        0.5125241885
 C          0.9859695076       -2.3813772579        0.2884196526
 C          1.7448451065       -3.0826341364       -0.6378194301
 C          3.0843940945       -2.7819213535       -0.8178212802
 C          3.6953936965       -1.7848985025       -0.0803222211
 C          2.9450179352       -1.0806103085        0.8528152671
 C          1.6062844576       -1.3855662622        1.0342354608
 H          1.0211280615       -0.8283210152        1.7564119904
 N          3.5551962195       -0.0548365892        1.6080805032
 S          4.1507331452        1.2556211859        0.7506636732
 O          5.2725048024        0.8235864793       -0.0428797363
 O          4.4247593630        2.2669932415        1.7470530448
 C          2.8154855930        1.7848728780       -0.3047371783
 C          1.9176880833        2.7119761444        0.1855915697
 C          0.8576210199        3.1045154006       -0.6144434224
 C          0.7082651750        2.5581312335       -1.8797382457
 C          1.6131415637        1.6214899450       -2.3532400414
 C          2.6786399455        1.2284154343       -1.5600455888
 H          3.4017021578        0.5035870170       -1.8963360751
 H          1.4836495223        1.1847203400       -3.3295591418
 H         -0.1226186262        2.8553632093       -2.4999148590
 H          0.1526835091        3.8337714322       -0.2465028141
 H          2.0737261133        3.1190935449        1.1721693697
 H          2.9668806657        0.2845101627        2.3565209011
 H          4.7319745878       -1.5258942075       -0.2237572081
 H          3.6601031555       -3.3289586692       -1.5490520571
 H          1.2822969657       -3.8466069661       -1.2404528124
 H         -0.6456029861       -2.7795871633        1.5899501875
 C         -1.0379380520       -3.8233829127       -0.2088417408
 C         -2.4841202764       -3.9018538306       -0.5945594698
 C         -1.4312427761       -3.7941980078       -1.6543273927
 H         -1.2242255904       -4.6658453314       -2.2580793105
 H         -1.3226318073       -2.8607320509       -2.1831575291
 H         -2.9988456736       -4.8428208748       -0.4700847481
 H         -3.1017254275       -3.0376486400       -0.3971081830
 H         -0.5890751242       -4.7429101585        0.1546132243
