  62
        -98.93846248
 C         -1.9535573094       -1.2621659576        0.7414815872
 C         -1.8374329953        0.1150369846        1.0672723426
 C         -3.0032146493        0.9588008913        0.7762992165
 C         -4.1058290152        0.3911161372        0.2552278838
 C         -5.3670564896        1.1250647219       -0.0972890886
 C         -5.3587930670        1.5870055808       -1.5605957435
 C         -4.0767497340        2.3123035849       -1.9682745849
 H         -4.1956043510        2.6251125335       -3.0079887276
 H         -3.2441943105        1.6052293094       -1.9393622953
 C         -3.7355717178        3.5329387299       -1.1020052297
 H         -4.6209080149        3.8597962999       -0.5556444403
 H         -3.4386406438        4.3540349413       -1.7580548585
 C         -2.5840008494        3.3082812970       -0.1200784438
 H         -2.2663451711        4.2833702529        0.2588305145
 H         -1.7391380871        2.8683626139       -0.6563582611
 C         -2.8975660581        2.4237626741        1.0936312820
 H         -3.8059747195        2.7804199352        1.5834543605
 H         -2.0665589394        2.5151781954        1.7991129714
 H         -6.2173230461        2.2417627887       -1.7213174513
 H         -5.4757638911        0.7104064331       -2.2020582410
 H         -5.4776464989        1.9817973220        0.5647961199
 H         -6.2102186150        0.4490070693        0.0554020874
 O         -4.1811305690       -0.9277973455       -0.0474061483
 C         -3.1007702274       -1.7864717796        0.1458154678
 O         -3.3173781360       -2.9473370004       -0.2441324129
 O         -0.8027886086        0.6069273146        1.5901695734
 C         -0.7267337707       -2.1063705563        1.0391058345
 C          0.3185209664       -1.8746853243       -0.0224184420
 C         -0.0162881220       -1.8910952537       -1.3721669444
 C          0.9448499963       -1.6511393975       -2.3377716164
 C          2.2564877017       -1.3928602172       -1.9783673851
 C          2.6001104714       -1.3713633961       -0.6333245806
 C          1.6325631752       -1.6116811190        0.3342097674
 H          1.9027445356       -1.5754296404        1.3808300339
 N          3.9362383537       -1.1089271042       -0.2648957016
 S          4.5464845871        0.4125795474       -0.6165858615
 O          4.4644279725        0.6308426104       -2.0374132211
 O          5.8686349951        0.4391897969       -0.0351479671
 C          3.4778431043        1.5447575276        0.2515816115
 C          2.2714832019        1.8995506591       -0.3181471616
 C          1.4189551576        2.7306811277        0.3895440208
 C          1.7808787040        3.1835697085        1.6479957698
 C          2.9947465433        2.8158542213        2.2072937679
 C          3.8525672695        1.9848487459        1.5054269725
 H          4.8082826444        1.6778433821        1.8994787633
 H          3.2718179140        3.1699229373        3.1874665270
 H          1.1077038075        3.8235424076        2.1959627040
 H          0.4697924775        3.0131023959       -0.0350101771
 H          2.0208252718        1.5263420427       -1.2984190095
 H          4.1293318169       -1.3192799511        0.7048620542
 H          3.0126461409       -1.1869202688       -2.7181668881
 H          0.6712033214       -1.6667818243       -3.3822051074
 H         -1.0404750304       -2.0917122195       -1.6542168209
 H         -0.3230100306       -1.7011796916        1.9815922014
 C         -1.0147200325       -3.5807484286        1.2705158554
 C         -0.7009679774       -4.6473620910        0.2695702918
 C          0.1139781222       -4.5367902666        1.5212017710
 H         -0.0060122112       -5.2881163940        2.2868091114
 H          1.1208443471       -4.1586916124        1.4255661877
 H         -1.4033791948       -5.4603931414        0.1702528476
 H         -0.2439771247       -4.3543669898       -0.6627549168
 H         -1.9145901658       -3.7285847604        1.8576348673
