  62
        -98.94358633
 C         -1.7738948654       -1.0511240021        0.6380232256
 C         -1.9338774580       -0.2867074556       -0.5428972665
 C         -3.3179543716       -0.1171399032       -1.0092348247
 C         -4.3215404255       -0.6934360534       -0.3229072556
 C         -5.7784408829       -0.5527336192       -0.6548516686
 C         -6.4036561873        0.6379631642        0.0855210228
 C         -5.6009667357        1.9332115997       -0.0380617397
 H         -6.1519543709        2.7091289184        0.4979860263
 H         -4.6427927762        1.8096165617        0.4720022174
 C         -5.3494183374        2.3894789993       -1.4819966278
 H         -6.0491695682        1.8920067786       -2.1545670908
 H         -5.5432908593        3.4621549726       -1.5484487048
 C         -3.9203477349        2.1630874172       -1.9789634980
 H         -3.2110470941        2.5784993776       -1.2584762700
 H         -3.7957763156        2.7131849249       -2.9154780700
 C         -3.5317536948        0.7041362719       -2.2494197125
 H         -2.5714342138        0.7084665123       -2.7729317523
 H         -4.2763909279        0.2386690096       -2.8981934621
 H         -6.4822961491        0.3840050896        1.1452413062
 H         -7.4122458430        0.7943716190       -0.3014929363
 H         -5.8903950087       -0.4250416783       -1.7297020017
 H         -6.2907606602       -1.4671720812       -0.3511536846
 O         -4.1245512223       -1.4383711605        0.7955315883
 C         -2.8521342195       -1.6237091962        1.3113484824
 O         -2.8131765385       -2.3038983927        2.3571822022
 O         -0.9754157676        0.2277788238       -1.1744587864
 C         -0.3846013850       -1.2637778498        1.2119463454
 C          0.2594407217        0.0715231353        1.4949614095
 C         -0.4503564436        1.0196797814        2.2280828925
 C          0.0967484732        2.2593061219        2.4943557234
 C          1.3638770039        2.5799816895        2.0389280685
 C          2.0833815133        1.6397108161        1.3117361263
 C          1.5320419200        0.3916801308        1.0519398176
 H          2.1082449690       -0.3287165398        0.4980683468
 N          3.3476017566        1.9529221508        0.8031526597
 S          4.5065987277        0.7971869273        0.4965350836
 O          4.5677755966       -0.1944866210        1.5452067382
 O          5.7186747026        1.5589129146        0.2813492822
 C          4.0098752507        0.0393892643       -1.0363112421
 C          3.4464951220        0.8201024063       -2.0254059927
 C          3.0782296647        0.2223120640       -3.2198206791
 C          3.2829342045       -1.1360193399       -3.4068424538
 C          3.8576805510       -1.9050559922       -2.4069264908
 C          4.2267950045       -1.3133173153       -1.2095465301
 H          4.6673108855       -1.8743026326       -0.4002348897
 H          4.0153397356       -2.9617838553       -2.5544452501
 H          2.9901451485       -1.5987009064       -4.3362579952
 H          2.6261055530        0.8161319030       -3.9977744508
 H          3.2915852778        1.8709766361       -1.8469598221
 H          3.7310569904        2.8442495424        1.0768397940
 H          1.7895146315        3.5512353925        2.2398728050
 H         -0.4665848899        2.9847887016        3.0621463102
 H         -1.4419791396        0.7701261770        2.5819528493
 H         -0.5247339683       -1.7855433898        2.1701604730
 C          0.4288360538       -2.1476093125        0.2893637952
 C          1.5342761114       -2.9968599322        0.8380150515
 C          0.2593498829       -3.6335009431        0.3747033254
 H          0.2717171506       -4.2073002282       -0.5395180402
 H         -0.4262354663       -4.0122559818        1.1190252807
 H          2.4226190097       -3.1332972216        0.2403792678
 H          1.7252684003       -2.9467803850        1.8995275622
 H          0.5581525917       -1.7143154918       -0.6961504387
