  62
        -98.94824657
 C         -1.1870521600       -1.2225014731       -0.0221777972
 C         -1.9145484501       -0.6468308864        1.0463762179
 C         -2.5473907978        0.6497538083        0.7695117722
 C         -2.3938968020        1.2110119495       -0.4437040899
 C         -3.0162163279        2.5072424431       -0.8737267702
 C         -4.3868969177        2.2780057725       -1.5257578208
 C         -5.3147278551        1.3772503716       -0.7107780521
 H         -6.2618978906        1.3118847461       -1.2503701897
 H         -4.8940454074        0.3697708118       -0.6755228761
 C         -5.5756825633        1.8653008146        0.7210444050
 H         -5.3142940968        2.9206291297        0.8073070738
 H         -6.6434035762        1.7774575959        0.9326147803
 C         -4.8416938674        1.0732512878        1.8049249865
 H         -5.2603529358        1.3543571491        2.7750195328
 H         -5.0259274766        0.0047265633        1.6670322609
 C         -3.3253207949        1.2935004256        1.8820002678
 H         -2.9660999328        0.8295258400        2.8057982619
 H         -3.1086856065        2.3629772220        1.9350208358
 H         -4.8619984617        3.2484789922       -1.6795692420
 H         -4.2326863050        1.8152798555       -2.5030348792
 H         -2.3539633605        2.9856354844       -1.5972986739
 H         -3.1172075574        3.1584804192       -0.0075116262
 O         -1.6798644023        0.6328817102       -1.4423733665
 C         -1.0486588018       -0.5915119779       -1.2576228915
 O         -0.4132633309       -0.9936178966       -2.2486658725
 O         -2.0279042611       -1.1916212980        2.1783785287
 C         -0.4866629582       -2.5512354530        0.1951477248
 C          1.0041113855       -2.3740236406        0.0391640437
 C          1.7874227568       -3.1608598196       -0.7946572206
 C          3.1510915011       -2.9415469661       -0.8855452300
 C          3.7583231197       -1.9396914185       -0.1521229497
 C          2.9854210546       -1.1528044360        0.6953008178
 C          1.6212138892       -1.3767245231        0.7863775186
 H          1.0302675652       -0.7639737705        1.4522726773
 N          3.5824037296       -0.1474748290        1.4778758726
 S          2.9115907660        1.3815684674        1.5363425985
 O          3.9465145445        2.2017498809        2.1280069728
 O          1.6491381478        1.3519448867        2.2291305189
 C          2.6813029571        1.8398272270       -0.1692441206
 C          3.7779509401        2.2622672234       -0.8955982274
 C          3.6164890997        2.5572297561       -2.2391192085
 C          2.3706380654        2.4153809154       -2.8322161577
 C          1.2794762330        1.9938015025       -2.0888307303
 C          1.4353345215        1.7025636991       -0.7432351098
 H          0.6106954079        1.3709852649       -0.1311273991
 H          0.3115256406        1.8666013933       -2.5472508835
 H          2.2455011215        2.6352726309       -3.8806818022
 H          4.4601637894        2.8912697117       -2.8212910428
 H          4.7261544639        2.3679244798       -0.3938015261
 H          4.5845775647       -0.0835330326        1.3672517584
 H          4.8214934415       -1.7687702047       -0.2254809833
 H          3.7477855349       -3.5568013532       -1.5414464171
 H          1.3308757868       -3.9437051196       -1.3769901625
 H         -0.6860523495       -2.8164678855        1.2444448661
 C         -1.0757674432       -3.6221816910       -0.6982665634
 C         -1.0099084491       -5.0623361471       -0.2887775757
 C         -2.3179070438       -4.3323221761       -0.2535661232
 H         -3.0665249417       -4.5749965269       -0.9928287055
 H         -2.7278370709       -4.0596617521        0.7082682173
 H         -0.8629200119       -5.8103533379       -1.0530189636
 H         -0.5332453446       -5.2924823514        0.6520884163
 H         -0.9880355591       -3.3825480177       -1.7518030363
