  62
        -98.93949718
 C         -2.6520439998       -0.8922101516        0.4281504620
 C         -2.6597847877        0.2641018877        1.2465553000
 C         -3.4869283089        1.3798622076        0.7771497673
 C         -4.1714921592        1.2625150158       -0.3753800204
 C         -5.0823441987        2.3000017744       -0.9737505523
 C         -4.3552819838        3.3636857191       -1.8076917769
 C         -3.5419221315        4.3771751757       -1.0017639771
 H         -3.2667810139        5.1826077442       -1.6855137706
 H         -4.1720502928        4.8108429207       -0.2246330933
 C         -2.2634633878        3.8060676767       -0.3723841204
 H         -1.4320704356        4.4912322392       -0.5525372591
 H         -2.0088619566        2.8608142414       -0.8579909655
 C         -2.3465441126        3.5815283723        1.1375954928
 H         -1.4023543000        3.1435669907        1.4711414962
 H         -2.4702811223        4.5410811379        1.6443924168
 C         -3.4824463692        2.6480171152        1.5766718447
 H         -3.3217669641        2.3807356992        2.6239735633
 H         -4.4423004929        3.1562931978        1.4887594713
 H         -3.7028304117        2.8592790303       -2.5242693603
 H         -5.1142162823        3.9074266210       -2.3749683567
 H         -5.6553380238        2.7845667705       -0.1827004820
 H         -5.7746008523        1.7647427807       -1.6271572271
 O         -4.1238137785        0.1424575989       -1.1428926191
 C         -3.3468183958       -0.9497303283       -0.7806118801
 O         -3.3741852617       -1.8842062950       -1.6026729128
 O         -2.0070243135        0.3575293240        2.3214837242
 C         -1.8039069881       -2.0750161989        0.8661905250
 C         -0.5954990563       -2.1602650075       -0.0343275565
 C         -0.4207382726       -3.1458736124       -0.9957814336
 C          0.7004078874       -3.1357023779       -1.8085258562
 C          1.6653504864       -2.1542961507       -1.6786915501
 C          1.5040254194       -1.1673392926       -0.7137092818
 C          0.3814162940       -1.1801159600        0.1004601235
 H          0.2483080136       -0.4112339499        0.8512639697
 N          2.4746183331       -0.1564232152       -0.5789977614
 S          4.0927026308       -0.6437394357       -0.6319498291
 O          4.4898112841       -0.7479026550       -2.0140312113
 O          4.2794286567       -1.8330738279        0.1684077378
 C          4.9066609912        0.7489375743        0.1242195668
 C          5.2677783676        0.6788654341        1.4562234003
 C          5.8892650155        1.7713750141        2.0404659883
 C          6.1344284342        2.9098523202        1.2875972858
 C          5.7648518866        2.9654080114       -0.0482549662
 C          5.1446187167        1.8762041096       -0.6392333140
 H          4.8499348108        1.8703914542       -1.6756339917
 H          5.9595134145        3.8516793444       -0.6303231517
 H          6.6194878898        3.7580520523        1.7443463688
 H          6.1798657180        1.7298924476        3.0778839721
 H          5.0652536253       -0.2298206866        2.0002737189
 H          2.2974137007        0.4324918779        0.2234765569
 H          2.5441260786       -2.1426928048       -2.3034085079
 H          0.8245161743       -3.9050336196       -2.5560227574
 H         -1.1668361632       -3.9132105741       -1.1185238801
 H         -1.4509719195       -1.8169105613        1.8748634743
 C         -2.6066034313       -3.3545268476        0.9478084565
 C         -2.0671817439       -4.5105159725        1.7343085406
 C         -3.2407960563       -3.7352064903        2.2507377127
 H         -4.2152077607       -4.1997291275        2.2322205684
 H         -3.0879717892       -3.0758622192        3.0926953442
 H         -2.2341892639       -5.5100590371        1.3631322138
 H         -1.1143599063       -4.3774914892        2.2242973749
 H         -3.1638958874       -3.5683921271        0.0441408491
