  62
        -98.94647916
 C         -1.4245957687       -1.5627361259       -0.4223693626
 C         -1.2771293860       -0.2434669134       -0.9193375187
 C         -2.4808908454        0.5984933858       -0.8600276313
 C         -3.6422384922        0.0914290472       -0.4108055990
 C         -4.9686950294        0.8017556330       -0.3697775919
 C         -5.1883546894        1.6688497966        0.8765427079
 C         -4.3577786454        2.9513973689        0.9249996434
 H         -4.4930833039        3.5076476651       -0.0030823183
 H         -4.7578176999        3.5650435964        1.7345682097
 C         -2.8616477936        2.7177692409        1.1752657162
 H         -2.7068915484        1.7093161135        1.5666796891
 H         -2.5026427290        3.4077812379        1.9425739938
 C         -1.9653533997        2.9068467102       -0.0486761488
 H         -0.9457673067        2.6548559314        0.2556867670
 H         -1.9817535886        3.9558396600       -0.3556140200
 C         -2.3435953111        2.0373056115       -1.2553287012
 H         -3.2672310866        2.4018985319       -1.7055573883
 H         -1.5406917707        2.1035156119       -1.9935586911
 H         -6.2457111818        1.9425209839        0.9018595284
 H         -4.9785946965        1.0670576934        1.7638534607
 H         -5.0785821072        1.4163996775       -1.2638439133
 H         -5.7352345902        0.0237765683       -0.3857398592
 O         -3.7508912801       -1.1884253520        0.0348329469
 C         -2.6478420358       -2.0240090522        0.0736561463
 O         -2.8858292140       -3.1539159362        0.5484812255
 O         -0.2186230661        0.2249071964       -1.4137631718
 C         -0.2861703979       -2.5715532911       -0.3795178705
 C          0.6297465890       -2.3025995725        0.7903090164
 C          0.7341439621       -3.2107276181        1.8377780871
 C          1.5803527375       -2.9590687474        2.9031785077
 C          2.3323845559       -1.7988328883        2.9459093259
 C          2.2313725729       -0.8824250173        1.9048116344
 C          1.3899696896       -1.1426836856        0.8336319673
 H          1.2989121370       -0.4200461081        0.0402125813
 N          3.0011971231        0.2885340416        1.8968869100
 S          2.3914576166        1.6986050509        1.2293782578
 O          3.2507761479        2.7383794283        1.7635258822
 O          0.9848987492        1.8570575675        1.5164106943
 C          2.6965354503        1.5686115925       -0.5190678384
 C          3.7003712573        0.7411009388       -0.9803511238
 C          3.9454267323        0.6843464407       -2.3427514860
 C          3.1932871345        1.4562389217       -3.2145279024
 C          2.1962129070        2.2890689412       -2.7332550999
 C          1.9440636823        2.3484804128       -1.3723953037
 H          1.1660355145        2.9718459373       -0.9620924946
 H          1.6074526338        2.8857315154       -3.4116855102
 H          3.3814777042        1.4051477900       -4.2756466966
 H          4.7181280920        0.0336286759       -2.7201398405
 H          4.2597995425        0.1444974177       -0.2789126732
 H          3.5342511839        0.4668106541        2.7351232304
 H          2.9899923397       -1.6005052151        3.7786381870
 H          1.6520515637       -3.6709877552        3.7116033685
 H          0.1350793659       -4.1097146487        1.8186439985
 H         -0.7633667882       -3.5469455999       -0.2135509569
 C          0.4991191025       -2.6353379673       -1.6761473844
 C          1.3044718528       -3.8622376485       -1.9760951616
 C          0.0567598788       -3.5748493512       -2.7552940131
 H          0.1485885521       -3.2573571390       -3.7829712021
 H         -0.8169092358       -4.1810737896       -2.5630171626
 H          2.2566690556       -3.7438749269       -2.4693640524
 H          1.2772971218       -4.6669105898       -1.2568684261
 H          0.9009180265       -1.6791588801       -1.9836708929
