  62
        -98.94144111
 C         -1.4965839998       -1.5537353893       -0.4291105314
 C         -0.7395961547       -2.0014514142        0.6805413357
 C          0.6321114775       -2.4868999115        0.4012982121
 C          1.0597632686       -2.5529828410       -0.8719722719
 C          2.4102980658       -2.9574348109       -1.4028170775
 C          3.4793447961       -1.8763502220       -1.1973360611
 C          3.5595611836       -1.3199074045        0.2211225110
 H          4.3406785511       -0.5542994900        0.2337585336
 H          2.6249894717       -0.8178287366        0.4768498272
 C          3.8902541528       -2.3446314679        1.3047690942
 H          4.0753853273       -1.7823508787        2.2236930876
 H          4.8129225703       -2.8665934225        1.0411624260
 C          2.8013981256       -3.3810888011        1.6045228837
 H          2.8329827156       -4.2119346062        0.9035616097
 H          3.0161243188       -3.8009652494        2.5914284389
 C          1.3888705164       -2.8094918389        1.6657310716
 H          0.7478380438       -3.5059539457        2.2193735133
 H          1.3941239441       -1.8869526607        2.2601423898
 H          4.4469499548       -2.2975817613       -1.4769114894
 H          3.2633841019       -1.0437498906       -1.8716536933
 H          2.2838181992       -3.1210484075       -2.4755366248
 H          2.7286256822       -3.8959794928       -0.9593843446
 O          0.2553604454       -2.2055276686       -1.9192851095
 C         -0.9991047274       -1.6633294019       -1.7302269995
 O         -1.5751200823       -1.3272962834       -2.7849032092
 O         -1.1526454429       -1.9952590128        1.8702778112
 C         -2.8382241474       -0.8469531157       -0.3192328069
 C         -2.6102610509        0.6396249185       -0.1529464833
 C         -3.3223503665        1.5628522669       -0.9095154966
 C         -3.0739583470        2.9179252658       -0.7830176013
 C         -2.0871525521        3.3753625805        0.0718695482
 C         -1.3680858527        2.4607150197        0.8323994941
 C         -1.6557618425        1.1069129274        0.7390787647
 H         -1.1046698240        0.4158208408        1.3569656702
 N         -0.3309102860        2.8823620281        1.6855171822
 S          1.1687082354        2.1478486311        1.5354243107
 O          1.1208479310        0.7973844361        2.0268370797
 O          2.0763078470        3.0447805805        2.2177726936
 C          1.5067129792        2.1677832720       -0.2150256339
 C          2.1601321008        3.2573813689       -0.7569384291
 C          2.3697397072        3.3002651778       -2.1257175619
 C          1.9127278818        2.2652350031       -2.9281903348
 C          1.2556210406        1.1796625278       -2.3698926300
 C          1.0522533952        1.1282543581       -1.0001522165
 H          0.5472349226        0.2943405612       -0.5386378979
 H          0.8869503232        0.3735118728       -2.9861112676
 H          2.0687850114        2.3007232889       -3.9948576049
 H          2.8838551726        4.1402889042       -2.5642254882
 H          2.5027648020        4.0370391649       -0.0959977207
 H         -0.2155694365        3.8855413076        1.7243298407
 H         -1.8709336667        4.4299857371        0.1496415211
 H         -3.6369396492        3.6242178026       -1.3735399467
 H         -4.0629617912        1.2111624821       -1.6119097544
 H         -3.3393739414       -0.9987253696       -1.2856014145
 C         -3.7466196997       -1.3697485648        0.7749350997
 C         -5.2286072244       -1.1994635068        0.6353511124
 C         -4.6141551833       -2.5600244343        0.5031602106
 H         -4.7622212017       -3.2782408408        1.2953106175
 H         -4.5602402093       -3.0020671891       -0.4813373057
 H         -5.8049646644       -0.9794176189        1.5207136039
 H         -5.5992141630       -0.7244822798       -0.2602254848
 H         -3.3190698407       -1.2826223894        1.7649948525
