  62
        -98.95003747
 C         -1.9040841446       -1.0395180013        0.0203010565
 C         -1.3273773340       -1.8146354760       -1.0160153343
 C         -0.2557743284       -2.7321301633       -0.6106412653
 C          0.0855622035       -2.8294727428        0.6872310155
 C          1.1115192193       -3.7645832240        1.2686456701
 C          2.5557250842       -3.2499561390        1.2026896647
 C          3.1810732168       -3.2528020692       -0.1922224109
 H          4.2516343303       -3.0804738543       -0.0666873238
 H          3.0596554410       -4.2368399667       -0.6462680796
 C          2.6176743453       -2.1775594751       -1.1306320076
 H          3.4351364392       -1.6642811210       -1.6431833301
 H          2.0963311527       -1.4152371921       -0.5476963350
 C          1.6694239927       -2.6949562815       -2.2123857310
 H          1.2945397099       -1.8263278302       -2.7614720896
 H          2.2198288870       -3.3266815937       -2.9139510789
 C          0.4673054479       -3.4884403985       -1.6827690640
 H         -0.2307423550       -3.6436207148       -2.5094719909
 H          0.7934820348       -4.4608056476       -1.3126208913
 H          2.5895917229       -2.2365797693        1.6087740969
 H          3.1583719984       -3.8916930572        1.8492509853
 H          1.0469131885       -4.7301721859        0.7659233908
 H          0.8433696639       -3.9013412896        2.3184755060
 O         -0.5138109084       -2.0894350295        1.6567045393
 C         -1.4846505746       -1.1447132631        1.3462329967
 O         -1.8853407039       -0.4892583044        2.3259198843
 O         -1.6997135874       -1.7495956375       -2.2185093784
 C         -2.9581438650       -0.0037258766       -0.3362402736
 C         -2.3800775521        1.3668862450       -0.0775329100
 C         -2.9234689364        2.2863777742        0.8091592121
 C         -2.2886447366        3.4962305974        1.0332006293
 C         -1.1007410826        3.8049928424        0.3965562008
 C         -0.5532121045        2.8960640194       -0.5034324004
 C         -1.2085303935        1.6998575142       -0.7484853296
 H         -0.7879784069        1.0030198490       -1.4595046097
 N          0.6462570706        3.1880091404       -1.1756109551
 S          1.8572500348        2.0509879008       -1.3554354129
 O          2.9608976399        2.7942328193       -1.9230789625
 O          1.3791921203        0.9329970928       -2.1245437484
 C          2.2881012739        1.5412836211        0.2990359354
 C          1.4413580893        0.6971970381        0.9892252519
 C          1.7592404672        0.3406922181        2.2904351988
 C          2.9208841254        0.8224562864        2.8741936588
 C          3.7656524371        1.6645323045        2.1666371775
 C          3.4450327750        2.0344097801        0.8704354462
 H          4.0708116836        2.6868440547        0.2833189241
 H          4.6694856937        2.0353529004        2.6224270461
 H          3.1657276423        0.5369345358        3.8850917942
 H          1.0869352010       -0.3063492759        2.8334172400
 H          0.5450336787        0.3286583457        0.5142049149
 H          1.0440314826        4.0864118427       -0.9421971696
 H         -0.5995628341        4.7415017351        0.5885671253
 H         -2.7181853486        4.2027451057        1.7269902259
 H         -3.8354833259        2.0527469671        1.3325867455
 H         -3.1145549307       -0.1096841666       -1.4198809424
 C         -4.2652200432       -0.2706399569        0.3767765437
 C         -5.5456920816        0.2643459421       -0.1889954891
 C         -5.2561231191       -1.2046133641       -0.2480126088
 H         -5.8143992375       -1.8684305144        0.3948841803
 H         -4.9970998972       -1.6387876316       -1.2028568869
 H         -6.3077765169        0.6087944891        0.4933778995
 H         -5.4877366465        0.8290559855       -1.1072871916
 H         -4.1567798106       -0.3086977054        1.4543279245
