  62
        -98.93550389
 C         -1.7393264139       -1.0506088988        0.4666362129
 C         -2.1950174809        0.0811701610       -0.2460589774
 C         -3.6587710218        0.2445232716       -0.3559386692
 C         -4.4642090934       -0.6854092988        0.1883029983
 C         -5.9712700391       -0.7355841410        0.2127916239
 C         -6.6963838653       -0.3818215779       -1.0946330093
 C         -7.4321013463        0.9581398252       -1.0386618605
 H         -8.2369992127        0.9463059081       -1.7769618300
 H         -7.8944486883        1.0599995518       -0.0546655702
 C         -6.5672206878        2.1858484931       -1.3191456750
 H         -6.3098160995        2.2122144765       -2.3802576947
 H         -7.1721102310        3.0713426719       -1.1099561507
 C         -5.2730193405        2.2738479897       -0.5076748691
 H         -5.4463858618        1.9664471164        0.5229893811
 H         -4.9667474045        3.3218293801       -0.4797947594
 C         -4.1131167751        1.4652960824       -1.1084860197
 H         -4.3513480756        1.1785498647       -2.1370008348
 H         -3.2202051680        2.0955721995       -1.1733140314
 H         -5.9914302571       -0.3928465480       -1.9243862385
 H         -7.4341656147       -1.1623740590       -1.2873091757
 H         -6.2145032871       -1.7592397007        0.5063721800
 H         -6.3255215274       -0.0886462550        1.0192521429
 O         -3.9758341510       -1.7676342574        0.8604860821
 C         -2.6195103804       -1.9755173204        1.0252485692
 O         -2.3277875173       -2.9978823717        1.6778484899
 H          2.1007504612       -0.0368296266       -0.0622566847
 C          1.6187548885        0.4106259050        0.7904152241
 C          0.4163192263       -0.0952450313        1.2600665586
 C         -0.1761742394        0.5100732948        2.3653723924
 C          0.4023592059        1.6138166976        2.9602790185
 C          1.5880001405        2.1333290526        2.4715933330
 C          2.1997753020        1.5245710313        1.3823266527
 N          3.4293330826        1.9981113950        0.9131888633
 S          3.9973914534        1.7287874722       -0.6293040745
 O          5.1195002709        2.6366473474       -0.7496405525
 O          2.9715534183        1.8627658006       -1.6361448691
 C          4.6136666919        0.0576668342       -0.5931949921
 C          5.1856528443       -0.4309108978        0.5646796897
 C          5.6990316515       -1.7180873593        0.5658431316
 C          5.6425182985       -2.4883420207       -0.5855237022
 C          5.0714798562       -1.9811975373       -1.7422433861
 C          4.5505418427       -0.6965202392       -1.7480716502
 H          4.0856733925       -0.2674274233       -2.6218995735
 H          5.0286946174       -2.5807303223       -2.6378032688
 H          6.0438075031       -3.4894216227       -0.5823426455
 H          6.1420806283       -2.1162895647        1.4644536707
 H          5.2141212270        0.1921326852        1.4427659963
 H          3.7468778737        2.8715365004        1.3043031038
 H          2.0358764672        3.0025171242        2.9283450920
 H         -0.0759556062        2.0794331410        3.8089648007
 H         -1.1071008518        0.1090910010        2.7432663789
 C         -0.2515196997       -1.2962671915        0.6368079502
 H         -0.1640525385       -2.1387438123        1.3391156866
 C          0.3612466360       -1.7048837908       -0.6870705310
 C          1.5271301806       -2.6456258085       -0.7205095556
 C          0.1740306140       -3.1129667067       -1.1633280913
 H          0.0031013169       -3.2828779820       -2.2157474880
 H         -0.3762822939       -3.7820532037       -0.5177086583
 H          2.2892853773       -2.4943046172       -1.4698090378
 H          1.9045465863       -3.0073725977        0.2238435615
 H          0.3179362141       -0.9135640237       -1.4279379809
 O         -1.4192655254        0.9276703508       -0.7643003628
