  62
        -98.94247444
 C         -1.4783911800       -1.1213340098        0.2343711306
 C         -2.4626139800       -0.7839410396        1.1964807005
 C         -3.1051255304        0.5278482501        1.0362792499
 C         -2.6837052306        1.3490349398        0.0577415796
 C         -3.2755593010        2.6946283395       -0.2448105710
 C         -4.4019328110        2.5846068788       -1.2819374909
 C         -5.4328661707        1.5023014887       -0.9614886004
 H         -4.9539480004        0.5224766888       -1.0251137600
 H         -6.1950928207        1.5375923481       -1.7428013704
 C         -6.1027098607        1.6491801891        0.4119858196
 H         -7.1768704706        1.4896588988        0.2966456397
 H         -5.9652023109        2.6647629693        0.7852483791
 C         -5.6161711504        0.6522992897        1.4657783300
 H         -5.6677538301       -0.3622282705        1.0618873504
 H         -6.2989586104        0.6984331899        2.3184324500
 C         -4.1984491904        0.8868201903        2.0025352298
 H         -4.0586716202        0.2340739007        2.8695682701
 H         -4.0976477407        1.9224474104        2.3345019294
 H         -3.9580106509        2.3566547485       -2.2536259808
 H         -4.8998145512        3.5532274286       -1.3545075013
 H         -2.4894389211        3.3385102695       -0.6427363613
 H         -3.6568367810        3.1335531098        0.6753075688
 O         -1.6866598206        1.0224197697       -0.8012492503
 C         -1.0662775502       -0.2222433902       -0.7521388598
 O         -0.1859900302       -0.3793144903       -1.6141279098
 O         -2.7819478898       -1.5411965993        2.1528116508
 C         -0.7874445396       -2.4669546096        0.3711349712
 C          0.7060998403       -2.2781568893        0.2749108710
 C          1.5188932804       -2.9460252595       -0.6300919387
 C          2.8778868304       -2.6842056491       -0.6778861489
 C          3.4529303802       -1.7523211886        0.1652554307
 C          2.6470848200       -1.0774521484        1.0737624904
 C          1.2913705801       -1.3525737987        1.1312635006
 H          0.6657860900       -0.8209360386        1.8386975604
 N          3.2159944298       -0.1042197779        1.9182503000
 S          4.1501925495        1.0744472920        1.1775053594
 O          5.4749290796        0.5533849422        0.9483174296
 O          4.0695774592        2.2234714724        2.0530934789
 C          3.3522477194        1.4150473911       -0.3796809307
 C          3.9709930694        1.0638270907       -1.5612429306
 C          3.3149941693        1.3073836801       -2.7568993206
 C          2.0593460091        1.8925946297       -2.7493667108
 C          1.4522441791        2.2426901101       -1.5538340910
 C          2.1017583392        1.9995727108       -0.3558734309
 H          1.6557385492        2.2591564611        0.5921220790
 H          0.4681996990        2.6832612199       -1.5517224411
 H          1.5426731791        2.0711291992       -3.6789046609
 H          3.7813385693        1.0335669898       -3.6896368905
 H          4.9480764395        0.6106487610       -1.5217689104
 H          2.5479254597        0.3227528822        2.5436669498
 H          4.5068574401       -1.5283741384        0.1329494006
 H          3.4968175505       -3.2074035193       -1.3905786687
 H          1.0869222606       -3.6540948599       -1.3175347384
 H         -1.0217616695       -2.7898451092        1.3999475313
 C         -1.3263418094       -3.5486861201       -0.5524152783
 C         -2.7259316794       -3.4815290407       -1.0846449483
 C         -1.5629227095       -3.3094218808       -2.0125094684
 H         -1.3402399993       -4.1084698111       -2.7045142181
 H         -1.3488516398       -2.3249927009       -2.3970556489
 H         -3.2999100692       -4.3946570309       -1.1366114479
 H         -3.3150478397       -2.6107592308       -0.8352860287
 H         -0.9696132592       -4.5350708699       -0.2720570479
