  62
        -98.94474842
 C         -0.4571952991       -1.7564920493       -0.9772682758
 C         -1.6018354093       -2.1456279895       -0.2369577586
 C         -2.8002152116       -1.3124099817       -0.3902148080
 C         -2.7527535504       -0.2412595343       -1.2017530224
 C         -3.8978508448        0.6970486135       -1.4545181938
 C         -3.8874310316        1.8938063542       -0.4944860592
 C         -3.6963677186        1.5131515967        0.9737948451
 H         -2.6917714187        1.1065047543        1.1192896487
 H         -3.7445048689        2.4367392290        1.5566222653
 C         -4.7362605024        0.5198075494        1.5111081701
 H         -5.6148055991        0.5167840505        0.8640377561
 H         -5.0603299384        0.8582275965        2.4977027573
 C         -4.2249005717       -0.9122583487        1.6801791503
 H         -3.2762365012       -0.8962530944        2.2239963581
 H         -4.9463237805       -1.4601499240        2.2928423810
 C         -4.0247329846       -1.7081673467        0.3841124039
 H         -3.8809258370       -2.7581651926        0.6557900469
 H         -4.9200847126       -1.6329390850       -0.2370264785
 H         -4.8287273181        2.4354262702       -0.6100987286
 H         -3.0754444391        2.5668028028       -0.7801059000
 H         -3.8172868330        1.0650741881       -2.4791044664
 H         -4.8320183963        0.1479525513       -1.3503147357
 O         -1.6368097342        0.1150006388       -1.8821653982
 C         -0.4503378979       -0.6061254165       -1.7674024359
 O          0.4876087244       -0.1194090964       -2.4220148197
 H          1.2946110549       -0.0762349971       -0.0073653821
 C          1.6646185076       -0.7922764093        0.7095752260
 C          1.5123982847       -2.1486093368        0.4627791621
 C          2.0082453794       -3.0553560755        1.3918421664
 C          2.6310020115       -2.6083980992        2.5443041988
 C          2.7416763406       -1.2544310857        2.8065321992
 C          2.2445464033       -0.3408074337        1.8843446695
 N          2.3110700240        1.0424922922        2.1073345871
 S          1.0074296638        1.9834309131        1.6252294874
 O          1.0930076072        3.1670503130        2.4581537762
 O         -0.2354913901        1.2515852348        1.7064947839
 C          1.3644632811        2.4487810362       -0.0531315229
 C          0.3066842203        2.6791858631       -0.9078098332
 C          0.5669409337        3.0805642744       -2.2072519303
 C          1.8769677768        3.2468592316       -2.6253481132
 C          2.9293514637        3.0171762573       -1.7528371538
 C          2.6752369718        2.6174094871       -0.4512159870
 H          3.4689851719        2.4208692328        0.2504216206
 H          3.9475470612        3.1414185969       -2.0853172658
 H          2.0776716280        3.5498789925       -3.6408707702
 H         -0.2520592929        3.2451346970       -2.8889075953
 H         -0.6968045526        2.5148721643       -0.5466836288
 H          2.6592692485        1.3172195540        3.0145585092
 H          3.1979204280       -0.9053999994        3.7203530837
 H          3.0131287979       -3.3215802447        3.2588034106
 H          1.8829473969       -4.1140357855        1.2184681047
 C          0.7893686997       -2.6025589732       -0.7804433308
 H          0.4189513318       -3.6228447536       -0.5882397186
 C          1.6944886693       -2.6655356203       -2.0008383963
 C          2.9885392712       -1.9207257331       -2.0981986695
 C          2.9957538940       -3.4095857102       -1.9375708777
 H          3.2804735906       -4.0209032973       -2.7803825777
 H          3.2979079718       -3.8062582080       -0.9802879991
 H          3.2473788757       -1.4938622191       -3.0544741571
 H          3.2873620532       -1.3134254442       -1.2581932615
 H          1.1245232380       -2.7581297668       -2.9193039927
 O         -1.6218823432       -3.1646532496        0.5071087218
