  62
        -98.94080158
 C          2.5585516762        1.3292446731        0.2820626922
 C          2.7722971540        0.4827717598       -0.8330365191
 C          3.5565573026       -0.7356296925       -0.5744893439
 C          4.0116440055       -0.9852626343        0.6657667364
 C          4.7754936828       -2.2110054496        1.0731327569
 C          3.8338574674       -3.3158438398        1.5717687323
 C          2.6551660077       -3.5945766693        0.6384717611
 H          2.0822983294       -4.4166028448        1.0736629992
 H          1.9931401353       -2.7246300996        0.6228151502
 C          3.0538951397       -3.9561475739       -0.7992163795
 H          4.0989008655       -4.2673270327       -0.8272950741
 H          2.4514276241       -4.8072932125       -1.1236388226
 C          2.8291713891       -2.8392477297       -1.8202663025
 H          1.8076222846       -2.4599544839       -1.7233360675
 H          2.9229359355       -3.2701882018       -2.8208404028
 C          3.8005900399       -1.6543766683       -1.7386675053
 H          4.8282572214       -2.0227238357       -1.7312526278
 H          3.6589145543       -1.0461330197       -2.6368956620
 H          4.4152860262       -4.2296699853        1.7070304071
 H          3.4343612265       -3.0189964818        2.5441961729
 H          5.3557605798       -2.5693284636        0.2251266279
 H          5.4574656816       -1.9370885906        1.8798522823
 O          3.7857386131       -0.1524335479        1.7130710467
 C          3.0485745036        1.0071386273        1.5517299092
 O          2.9076050404        1.6714563443        2.5976041706
 H          0.2480238682        1.0024555871       -1.3178491555
 C         -0.3259740780        1.4368359308       -0.5120162943
 C          0.2945428849        2.3219796469        0.3601307525
 C         -0.4535280827        2.8675542289        1.3957127167
 C         -1.7879381808        2.5325551052        1.5518103197
 C         -2.3996891081        1.6458695430        0.6836538210
 C         -1.6580363869        1.0920769458       -0.3517212907
 N         -2.2679783611        0.1662428507       -1.2276878707
 S         -2.7353615908       -1.2819359865       -0.5037124508
 O         -1.9120934828       -1.5822846364        0.6464934287
 O         -2.7424893696       -2.2636826491       -1.5662103348
 C         -4.4105963889       -0.9644963421        0.0078428586
 C         -4.7392232186       -0.9904182836        1.3488453948
 C         -6.0489957529       -0.7311055769        1.7222183345
 C         -7.0008527937       -0.4526544451        0.7531770766
 C         -6.6547685743       -0.4332423715       -0.5899620073
 C         -5.3476630626       -0.6924010131       -0.9698967099
 H         -5.0361087357       -0.6933173870       -2.0010391759
 H         -7.3979180724       -0.2168546626       -1.3403690261
 H         -8.0186932657       -0.2499942156        1.0468093913
 H         -6.3197532900       -0.7461918353        2.7657521047
 H         -3.9634819810       -1.2067044876        2.0661168126
 H         -1.6884968140       -0.0395756721       -2.0307563590
 H         -3.4366645610        1.3770515492        0.8033229588
 H         -2.3565383088        2.9631939621        2.3617570831
 H          0.0238868717        3.5412368090        2.0922819043
 C          1.7626736174        2.6248969832        0.2061471823
 H          2.0773113359        3.2037136304        1.0881493033
 C          2.0940605747        3.4535164030       -1.0287809009
 C          1.0918605214        3.8181108198       -2.0796982166
 C          1.5897845774        4.8630558340       -1.1303505143
 H          2.2570306716        5.6276881596       -1.4979846586
 H          0.9112299223        5.1999140531       -0.3609085556
 H          1.4311525018        3.8404535441       -3.1042632433
 H          0.0769534119        3.4709001532       -1.9658195019
 H          3.1059320057        3.2752667339       -1.3772606114
 O          2.3413443413        0.7110269011       -1.9944085248
