  62
        -98.93373575
 C         -2.6759420398       -0.7601377357        0.2600769192
 C         -2.7604902890        0.2961021864        1.1955717597
 C         -3.2572609933        1.5854964497        0.6866294079
 C         -3.5980728108        1.6864087858       -0.6100750156
 C         -4.0599199832        2.9193445845       -1.3360043837
 C         -2.8718679558        3.6212084938       -2.0157067773
 C         -2.1163592262        4.6121885038       -1.1306734881
 H         -1.2275184552        4.9269336961       -1.6821871752
 H         -2.7358544693        5.4978531194       -0.9749479184
 C         -1.6821823318        4.0744788699        0.2357446441
 H         -1.2872827962        3.0627461972        0.1241978129
 H         -0.8655011828        4.7022548081        0.5974102798
 C         -2.8127415077        4.0852258341        1.2758460813
 H         -3.6350343302        4.6928116563        0.8983711734
 H         -2.4598712972        4.5734651404        2.1865130813
 C         -3.3430038841        2.7028814774        1.6903019954
 H         -2.7791152628        2.3406710184        2.5556462020
 H         -4.3838267067        2.8024629173        2.0150308906
 H         -2.1867043966        2.8475816810       -2.3724737356
 H         -3.2378951781        4.1610704846       -2.8913037409
 H         -4.7549134063        2.5851804586       -2.1090093976
 H         -4.5813512862        3.5916885096       -0.6611714767
 O         -3.5033555711        0.6426489709       -1.4783147035
 C         -3.0258191656       -0.5945500544       -1.0800755785
 O         -2.9663562315       -1.4399489755       -1.9918184361
 H         -0.0394275391       -0.4806908752        0.6277188344
 C          0.1655821003       -1.3921131395        0.0791286619
 C         -0.8186170142       -2.3720301023        0.0155547617
 C         -0.5405128180       -3.5444434930       -0.6726830599
 C          0.6837677888       -3.7142006679       -1.2975462544
 C          1.6511925753       -2.7283371517       -1.2503913883
 C          1.3887383916       -1.5553136077       -0.5529428290
 N          2.3544997129       -0.5306796327       -0.5094060082
 S          3.9533544710       -0.9869048608       -0.2053978252
 O          4.5248119683       -1.4922825489       -1.4281248334
 O          4.0076779898       -1.8787407686        0.9318066504
 C          4.6858388380        0.5857608998        0.1979562982
 C          5.0955294396        1.4113083522       -0.8317888429
 C          5.6456128810        2.6448557065       -0.5218229448
 C          5.7751758060        3.0302791152        0.8043123895
 C          5.3599632656        2.1904518634        1.8268119858
 C          4.8077791177        0.9557503962        1.5238229604
 H          4.4804550190        0.2673888504        2.2866618528
 H          5.4642726564        2.4915778214        2.8567859026
 H          6.2052362836        3.9901187767        1.0431108332
 H          5.9719283794        3.2998664090       -1.3134348600
 H          4.9835632886        1.0655495623       -1.8461193314
 H          2.0771518633        0.2183094381        0.1109016683
 H          2.6059760944       -2.8523566109       -1.7351072891
 H          0.8865188619       -4.6291565899       -1.8337647681
 H         -1.2819171149       -4.3242773054       -0.7268981573
 C         -2.1288494730       -2.1010196355        0.7158609061
 H         -1.9185513184       -1.9805672835        1.7892036245
 C         -3.1572421398       -3.1971040121        0.5425944437
 C         -3.1046390992       -4.4191215178        1.4086680919
 C         -4.1853980056       -3.4017141102        1.6131408648
 H         -5.1935218084       -3.6513741433        1.3183373622
 H         -4.1306650314       -2.7636894357        2.4832122151
 H         -3.3727970328       -5.3706624458        0.9750153098
 H         -2.3160232391       -4.4766251220        2.1437393399
 H         -3.4779314282       -3.3105737742       -0.4865351364
 O         -2.4173520373        0.1731158069        2.4039252242
