  62
        -98.93222532
 C         -2.5526246759       -1.0352526197        0.5008437656
 C         -2.7747056779        0.2206690249        1.1174806026
 C         -3.9982662468        0.9557766654        0.7462801168
 C         -4.8309440794        0.4040681781       -0.1557997285
 C         -6.1131164198        0.9631251195       -0.7138702777
 C         -5.8771466394        2.0716570955       -1.7511920234
 C         -4.8291388129        3.1075519934       -1.3540767443
 H         -4.6876665007        3.7790049518       -2.2051396504
 H         -3.8766814580        2.6040647740       -1.1783266199
 C         -5.1862094533        3.9611272623       -0.1393676974
 H         -6.1310243548        4.4755278904       -0.3282482822
 H         -4.4083087741        4.7224149258       -0.0397143735
 C         -5.2935528666        3.2176843482        1.1943173932
 H         -6.2411896899        2.6924783204        1.2783875191
 H         -5.2855685578        3.9709309495        1.9875322854
 C         -4.1386645825        2.2647805568        1.4855226044
 H         -4.1651923763        1.9983704302        2.5489934353
 H         -3.1900574913        2.7958646383        1.3466529376
 H         -6.8289073635        2.5688054296       -1.9464753734
 H         -5.5453157775        1.6009313522       -2.6799421731
 H         -6.7488717771        1.3174245988        0.0920975392
 H         -6.6278565804        0.1333257958       -1.2033440312
 O         -4.5704178209       -0.8006149528       -0.7361166343
 C         -3.4443607258       -1.5476366604       -0.4410459685
 O         -3.3784962327       -2.6200244711       -1.0725761453
 O         -1.9783460720        0.7174019225        1.9604072307
 C         -1.2943580554       -1.7857158231        0.9036339590
 C         -0.2096366870       -1.5870249984       -0.1286817721
 C         -0.2483251789       -2.2231404257       -1.3647955651
 C          0.7592221798       -2.0140883683       -2.2891068721
 C          1.8204284972       -1.1725686995       -2.0051327856
 C          1.8674904196       -0.5303583113       -0.7751922613
 C          0.8572354255       -0.7457331229        0.1542539270
 H          0.8875503070       -0.2355669358        1.1079593594
 N          2.9305069871        0.3439987870       -0.4846133427
 S          4.4836609779       -0.1565720916       -0.9249992506
 O          4.6810341389        0.1463487829       -2.3204889761
 O          4.6862430146       -1.5362904027       -0.5438789995
 C          5.4913114850        0.9205478622        0.0742839079
 C          6.0170715390        0.4470929294        1.2613339033
 C          6.7851961347        1.2980005647        2.0405038446
 C          7.0103891735        2.6010716975        1.6229643837
 C          6.4753087978        3.0618109122        0.4289927972
 C          5.7074997818        2.2161568280       -0.3555775690
 H          5.2798602503        2.5273431039       -1.2943348633
 H          6.6549287228        4.0748989989        0.1071722696
 H          7.6092862990        3.2608305791        2.2307112460
 H          7.2048970279        0.9419761974        2.9675662948
 H          5.8237155888       -0.5759843597        1.5417166081
 H          2.9069377176        0.6669997065        0.4730959892
 H          2.6136326088       -1.0095703816       -2.7170696475
 H          0.7185807093       -2.5133233675       -3.2458728223
 H         -1.0835460561       -2.8629900864       -1.6029095051
 H         -0.9612011447       -1.3009508711        1.8313567219
 C         -1.5338716026       -3.2537839031        1.1926529728
 C         -0.5186370382       -4.0058365963        1.9981424165
 C         -1.8556840016       -3.6808956456        2.5919766927
 H         -2.5664909225       -4.4808256236        2.7347058239
 H         -1.9043274688       -2.9136265006        3.3509808036
 H         -0.3074105886       -5.0302335250        1.7327721259
 H          0.3418813121       -3.4586483760        2.3529292735
 H         -2.0299728415       -3.7802562589        0.3884342105
