  62
        -98.92983498
 C         -2.3539883812       -0.5138029360        0.8613320207
 C         -3.3961280442       -1.1227292103        0.1212344241
 C         -4.7191086870       -0.4680449547        0.1977159715
 C         -4.8657200597        0.6419420664        0.9394415386
 C         -6.1014536924        1.4845211442        1.0947183120
 C         -6.0972208260        2.6438875756        0.0839343214
 C         -6.6934352578        2.3089035720       -1.2828004153
 H         -7.7757312107        2.2012933285       -1.1849312818
 H         -6.5069743832        3.1640218441       -1.9365435996
 C         -6.1353859079        1.0491133826       -1.9501714298
 H         -5.0510324604        1.0182035526       -1.8288551505
 H         -6.3386533979        1.1199114342       -3.0205044294
 C         -6.7601198032       -0.2464838793       -1.4114186765
 H         -7.6427205300        0.0030712917       -0.8226423477
 H         -7.1087150369       -0.8542719532       -2.2489238771
 C         -5.8204391735       -1.1346952365       -0.5813119892
 H         -6.4181653273       -1.7394570294        0.1086795180
 H         -5.3034516681       -1.8364122394       -1.2433432834
 H         -5.0634275212        2.9782993115       -0.0362379329
 H         -6.6629866788        3.4776934826        0.5046036797
 H         -6.9966263640        0.8779797388        0.9946984111
 H         -6.0686587769        1.9019581479        2.1032282385
 O         -3.8352196018        1.1965835704        1.6368716596
 C         -2.5709217751        0.6425681201        1.6147547832
 O         -1.7312432452        1.2575746312        2.3043600535
 H          1.5531585407       -0.0164794243        1.0452658016
 C          1.1782604390       -0.0340220767        0.0322116867
 C         -0.0976166504       -0.5103902890       -0.2286761273
 C         -0.5633093610       -0.4938361581       -1.5397676510
 C          0.2385864371       -0.0181098464       -2.5611226902
 C          1.5225815328        0.4275856266       -2.3012424481
 C          1.9947145208        0.4206487448       -0.9941092865
 N          3.2870409987        0.8750395157       -0.6891307383
 S          4.1310873651        0.0609592032        0.5282927336
 O          3.8994598343       -1.3611153090        0.4179587650
 O          3.8099019154        0.6631630765        1.7979285888
 C          5.8126653369        0.4524922144        0.0837867886
 C          6.5463620461       -0.4568626456       -0.6545216699
 C          7.8431287387       -0.1317742066       -1.0204909498
 C          8.3796757709        1.0913081563       -0.6471824885
 C          7.6310785270        1.9933408828        0.0945451427
 C          6.3343599185        1.6744130684        0.4650932677
 H          5.7184805627        2.3384554068        1.0491106221
 H          8.0527992661        2.9417855316        0.3857434280
 H          9.3890239591        1.3418896358       -0.9329991224
 H          8.4287830953       -0.8323225957       -1.5935977028
 H          6.0906132105       -1.3988033152       -0.9143108827
 H          3.8567835833        1.0297027392       -1.5096989944
 H          2.1519103517        0.7842758861       -3.1023803843
 H         -0.1349555375       -0.0097448825       -3.5740949734
 H         -1.5524505341       -0.8707549938       -1.7502983098
 C         -0.9341603649       -1.0526601345        0.9015287395
 H         -0.5040885013       -0.6616166632        1.8386364284
 C         -0.8703499293       -2.5726142137        0.9847413294
 C         -0.4295520236       -3.4484785881       -0.1449307770
 C          0.4585365888       -3.2672331544        1.0470864826
 H          0.5762206187       -4.0903655972        1.7360978134
 H          1.3500288208       -2.6672502867        0.9269070282
 H         -0.1404283075       -2.9783484776       -1.0714192776
 H         -0.9427278115       -4.3886762013       -0.2764823502
 H         -1.6539604447       -2.9712937621        1.6218223903
 O         -3.2534725645       -2.1545472053       -0.5827567247
