  62
        -98.94397581
 C          1.7579106594        1.4491188004        0.4959650421
 C          2.5826505977        0.9347041118       -0.5348162091
 C          3.4291174763       -0.2114068008       -0.1639494008
 C          3.3385988703       -0.7338495438        1.0718680690
 C          4.1140484659       -1.9214491410        1.5630969279
 C          3.3561595548       -3.2331402741        1.3164655870
 C          2.8217140762       -3.3780029104       -0.1080779108
 H          2.3284087292       -4.3504116617       -0.1698971043
 H          2.0632681117       -2.6123408533       -0.2836610053
 C          3.8925290066       -3.2769572913       -1.2027996604
 H          3.7285532307       -4.0749837978       -1.9298494480
 H          4.8823155691       -3.4315387088       -0.7716243859
 C          3.8768340570       -1.9575285050       -1.9766380039
 H          2.8639047227       -1.7500230688       -2.3302361520
 H          4.5142551628       -2.0721640390       -2.8573598018
 C          4.3791948630       -0.7291410361       -1.2076275982
 H          5.3537127426       -0.9456881613       -0.7648528736
 H          4.5030379238        0.0840642240       -1.9285887791
 H          4.0250469427       -4.0651821194        1.5439355461
 H          2.5119522868       -3.2811124866        2.0085679392
 H          5.0787109339       -1.9486969783        1.0597704414
 H          4.2790068174       -1.8031912651        2.6355250944
 O          2.4845383339       -0.2556484328        2.0134229374
 C          1.6822968547        0.8399575128        1.7516796465
 O          0.9500856772        1.1759620336        2.7055459503
 O          2.6349839404        1.3968554811       -1.7032365421
 C          0.8465512853        2.6526495884        0.2964917262
 C         -0.4243687748        2.1701993002       -0.3591687263
 C         -0.5319059772        1.9708268865       -1.7307366491
 C         -1.6995763543        1.4629119964       -2.2728507166
 C         -2.7758586441        1.1383373941       -1.4654372873
 C         -2.6707291693        1.3212496706       -0.0927528739
 C         -1.5032987426        1.8381658774        0.4492736436
 H         -1.4155190430        1.9612154716        1.5207236763
 N         -3.7462685590        0.9647952790        0.7418174904
 S         -4.4285747682       -0.5418863218        0.4882710810
 O         -5.3928259406       -0.4591989960       -0.5803145468
 O         -4.9503887442       -0.9491890847        1.7738113031
 C         -3.0778321613       -1.5993999362       -0.0057621789
 C         -3.1432455291       -2.2776357033       -1.2056647896
 C         -2.0795608151       -3.0826719994       -1.5803025822
 C         -0.9715503451       -3.1909491975       -0.7547909178
 C         -0.9209790256       -2.5030643032        0.4479671597
 C         -1.9826406789       -1.6997173789        0.8294086551
 H         -1.9625010581       -1.1556176915        1.7608373024
 H         -0.0572836014       -2.5802429201        1.0900756413
 H         -0.1409022046       -3.8131530898       -1.0482571876
 H         -2.1151191405       -3.6193474414       -2.5145308404
 H         -4.0212020562       -2.1595376430       -1.8196785417
 H         -3.5611870205        1.1140189323        1.7233184535
 H         -3.6915565182        0.7423786873       -1.8740924483
 H         -1.7723216119        1.3133917572       -3.3392291499
 H          0.3132163498        2.1886623484       -2.3637407244
 H          0.5869702419        2.9974734158        1.3066359431
 C          1.5030019833        3.7994266193       -0.4416837366
 C          0.8713998986        5.1560169241       -0.3693824934
 C          2.1620251752        4.8908623944        0.3445848288
 H          3.0681276839        5.3303122178       -0.0446570056
 H          2.1430825196        4.8161824669        1.4224749011
 H          0.8885901258        5.7803675178       -1.2493094774
 H         -0.0244367756        5.2592807384        0.2246850849
 H          1.9738651930        3.5105953146       -1.3709880375
