  62
        -98.93860455
 C          1.6606369836        1.0256621022       -0.6599699477
 C          1.6493961014       -0.1239450157        0.1641910624
 C          2.9290865389       -0.4765231788        0.8096631056
 C          4.0035870898        0.3056631495        0.6099366695
 C          5.3995824154        0.0977833282        1.1288335700
 C          6.2548731496       -0.6611943523        0.1000038720
 C          6.1727572564       -2.1843665813        0.1921284781
 H          6.7137234836       -2.5913171451       -0.6652454588
 H          6.6905835914       -2.5175149294        1.0940165280
 C          4.7559275371       -2.7641205393        0.1997653392
 H          4.1436730047       -2.2492192266       -0.5426040233
 H          4.8210293575       -3.8108139180       -0.1035411144
 C          4.0799860276       -2.6881457521        1.5770698885
 H          4.8292201823       -2.4397112421        2.3285981103
 H          3.6900170790       -3.6726296568        1.8441024253
 C          2.9036748291       -1.7051680948        1.6775608970
 H          1.9756645591       -2.2179569398        1.4050362715
 H          2.7860178829       -1.3922604744        2.7208894121
 H          7.2992143147       -0.3705679812        0.2304464481
 H          5.9468091258       -0.3350123616       -0.8965979781
 H          5.3831256034       -0.4173628454        2.0846808040
 H          5.8287728115        1.0916534657        1.2722248228
 O          3.9639255732        1.4179588811       -0.1743432318
 C          2.8061061310        1.8070230354       -0.8195423076
 O          2.9189389700        2.8494659722       -1.4958645121
 O          0.6312524810       -0.8409240456        0.3477302980
 C          0.3988229582        1.4951507201       -1.3670037724
 C         -0.5741183157        1.9957222317       -0.3262150584
 C         -0.2507902446        3.1418626411        0.3969118843
 C         -1.1039340531        3.6248957555        1.3695673366
 C         -2.2876475092        2.9646704574        1.6553085770
 C         -2.6155678360        1.8171058337        0.9463898525
 C         -1.7673360245        1.3502053574       -0.0493109659
 H         -2.0432150931        0.4697850371       -0.6007000884
 N         -3.8136708089        1.1215080699        1.1943542506
 S         -3.7034792760       -0.5174301442        1.5700189705
 O         -4.9771083485       -0.8215639747        2.1911604875
 O         -2.5336848605       -0.7935218517        2.3700722519
 C         -3.6257758854       -1.3426911589       -0.0040420240
 C         -4.7417322461       -1.2839600194       -0.8159577962
 C         -4.7054569868       -1.9134534995       -2.0495272385
 C         -3.5612805867       -2.5907881739       -2.4445206383
 C         -2.4524049061       -2.6445068120       -1.6138497349
 C         -2.4790291072       -2.0149421139       -0.3785547345
 H         -1.6228692564       -2.0054253071        0.2786497338
 H         -1.5600248139       -3.1663962660       -1.9221156188
 H         -3.5309209294       -3.0790094042       -3.4061194877
 H         -5.5649968291       -1.8733114006       -2.6990534603
 H         -5.6110788193       -0.7531574133       -0.4654044624
 H         -4.4194418939        1.5798027894        1.8614534909
 H         -2.9502206974        3.3347028873        2.4236660478
 H         -0.8437172523        4.5180197121        1.9179422781
 H          0.6813500071        3.6471870812        0.1824179775
 H          0.7030340499        2.3543175595       -1.9813504429
 C         -0.1685087408        0.4204423624       -2.2693383224
 C         -1.1682445469        0.7872191748       -3.3234631558
 C          0.2222745874        0.3882787907       -3.7147010163
 H          0.3714518566       -0.5715021502       -4.1857429955
 H          0.8951685911        1.1562716254       -4.0679433869
 H         -1.9772988263        0.1012151382       -3.5240819915
 H         -1.4397186359        1.8282824204       -3.4110806253
 H         -0.2898952318       -0.5311873845       -1.7676635928
