  62
        -98.93825907
 C         -0.8172480917       -1.2876774748        0.4382121246
 C         -1.3905281716       -0.1449216213        1.0413251088
 C         -2.2825188420        0.6547925526        0.1927784223
 C         -2.4453959078        0.3061377054       -1.0965001960
 C         -3.3352668468        1.0240127095       -2.0695570448
 C         -4.7448590283        0.4171174519       -2.0923420130
 C         -5.3576714396        0.2341151598       -0.7038489780
 H         -6.3629360500       -0.1693718634       -0.8426878426
 H         -4.7814004126       -0.5166947531       -0.1584376576
 C         -5.4324438201        1.5204838683        0.1303258728
 H         -6.4177978323        1.5772312023        0.5975109969
 H         -5.3319597925        2.3898030354       -0.5204728283
 C         -4.4004454842        1.6068911140        1.2561435465
 H         -4.4321742339        0.6910086996        1.8513820400
 H         -4.6833927030        2.4342148738        1.9122701095
 C         -2.9490151649        1.8471303890        0.8206318159
 H         -2.9020268884        2.7128876559        0.1558402028
 H         -2.3683140007        2.0668783726        1.7210569412
 H         -5.3878782635        1.0608288637       -2.6954471788
 H         -4.6920071614       -0.5606487740       -2.5766939363
 H         -3.3853361035        2.0770923445       -1.7981966393
 H         -2.8909475134        0.9382717438       -3.0630212919
 O         -1.8487961290       -0.7767578539       -1.6529815644
 C         -1.0187616492       -1.6011874926       -0.9072067043
 O         -0.5430347470       -2.5583006617       -1.5441327079
 O         -1.1601476304        0.1949041387        2.2343980905
 C          0.1340202002       -2.1437943934        1.2682675524
 C          1.4352116344       -2.2317755284        0.5078458758
 C          2.1123273761       -3.3635902142        0.0755217645
 C          3.2711728587       -3.2476031341       -0.6765227622
 C          3.7694853534       -2.0132461942       -1.0429544240
 C          3.1048461556       -0.8702223610       -0.6133159086
 C          1.9822661766       -0.9909414976        0.1831372205
 H          1.4796779044       -0.0935986946        0.5162107605
 N          3.5497934610        0.4145798907       -0.9640705369
 S          2.4067861818        1.5895385356       -1.3151118861
 O          1.2058840647        1.0331484769       -1.8940899617
 O          3.1208107315        2.5449740092       -2.1391279015
 C          2.0563578763        2.3550395733        0.2524691468
 C          3.1025129926        2.6100575853        1.1172867742
 C          2.8359101661        3.2480434926        2.3177448582
 C          1.5381689320        3.6271028688        2.6262945797
 C          0.5010056497        3.3704884470        1.7437432936
 C          0.7595618193        2.7263203532        0.5444679643
 H         -0.0219142591        2.4874819299       -0.1609204562
 H         -0.5084928660        3.6617670637        1.9849337168
 H          1.3306673008        4.1238121194        3.5609130830
 H          3.6391271962        3.4476503085        3.0086129242
 H          4.0970541244        2.3022916925        0.8409266696
 H          4.3184327575        0.4341683669       -1.6189248728
 H          4.6501205298       -1.9303470973       -1.6614592243
 H          3.7775076509       -4.1427448158       -1.0053386691
 H          1.7431765202       -4.3504592359        0.2857456824
 H          0.3355777798       -1.5351838634        2.1667357427
 C         -0.6095980786       -3.3735890173        1.7638953831
 C         -0.7845892213       -4.6496358850        1.0021242942
 C          0.0254224051       -4.6353824705        2.2658941517
 H         -0.4068805178       -5.0956827372        3.1422709348
 H          1.0966957971       -4.7347072394        2.2118265162
 H         -1.7585148488       -5.1176442890        1.0266064256
 H         -0.2989456035       -4.7353325863        0.0438357523
 H         -1.4853438064       -3.0440222625        2.3198232897
