  62
        -98.93194063
 C         -2.5525719059       -0.9956551644        0.4960483664
 C         -2.8698808085        0.2484667360        1.0960568660
 C         -4.1736226563        0.8542099038        0.7665584136
 C         -4.9907325753        0.1998198432       -0.0792175322
 C         -6.3478599834        0.6144142587       -0.5835506069
 C         -6.2754506795        1.7122306482       -1.6558247402
 C         -5.3186996460        2.8573098217       -1.3357923187
 H         -5.2874678908        3.5166625384       -2.2072735469
 H         -4.3129776080        2.4558096960       -1.1984613647
 C         -5.6996616574        3.7031000584       -0.1229045854
 H         -6.7001688513        4.1147439578       -0.2730686589
 H         -4.9992062239        4.5410911734       -0.0807647420
 C         -5.6636770156        2.9888531091        1.2304626880
 H         -6.5477130742        2.3738489015        1.3760846834
 H         -5.6919329530        3.7602510666        2.0055433588
 C         -4.4050722562        2.1642391571        1.4805317420
 H         -4.3487064616        1.9279861022        2.5499092531
 H         -3.5230434072        2.7821964147        1.2769704920
 H         -7.2807926867        2.1069807770       -1.8127697500
 H         -5.9438589449        1.2518488288       -2.5898272662
 H         -6.9758283935        0.9257909032        0.2459405422
 H         -6.8001607809       -0.2752939761       -1.0273807374
 O         -4.6409382879       -0.9897291071       -0.6430908752
 C         -3.4348568196       -1.6166332796       -0.3875956359
 O         -3.2966766869       -2.6938544697       -1.0001011465
 O         -2.0906061742        0.8391402466        1.8930653376
 C         -1.2155336273       -1.6107233887        0.8710025145
 C         -0.1611665168       -1.3349592241       -0.1753850135
 C         -0.2654420577       -1.8460295141       -1.4646608460
 C          0.7223275195       -1.5921515722       -2.3988688719
 C          1.8302782379       -0.8307757015       -2.0706705300
 C          1.9458843638       -0.3180439567       -0.7858345749
 C          0.9529489341       -0.5758184768        0.1520207907
 H          1.0386938503       -0.1646473483        1.1489518123
 N          3.0601056482        0.4699169678       -0.4479196294
 S          4.5697951321       -0.0367437231       -1.0140627937
 O          4.7319058002        0.4390149387       -2.3652025923
 O          4.7170738148       -1.4620877626       -0.8244714453
 C          5.6636051441        0.8528554230        0.0753062529
 C          6.1919020217        0.2071047197        1.1770514231
 C          7.0278779223        0.9112550123        2.0293414972
 C          7.3171157701        2.2421441451        1.7681625123
 C          6.7784974961        2.8767076458        0.6584932826
 C          5.9428411469        2.1784406600       -0.1984887912
 H          5.5096230488        2.6270007749       -1.0771817777
 H          7.0080531036        3.9108098118        0.4581308498
 H          7.9690226732        2.7873500773        2.4323111401
 H          7.4503094784        0.4201216787        2.8911759100
 H          5.9473171780       -0.8310884860        1.3353587409
 H          3.0892409468        0.6915827645        0.5378300014
 H          2.6086514885       -0.6333700302       -2.7903440445
 H          0.6299194269       -1.9935619579       -3.3971990803
 H         -1.1309065787       -2.4338103255       -1.7293703449
 H         -0.9138102706       -1.0903623027        1.7902299030
 C         -1.2959548944       -3.0954668422        1.1683403006
 C         -0.2233528108       -3.7255368647        2.0032115139
 C         -1.6026011114       -3.5490259918        2.5625480242
 H         -2.2240216278       -4.4219035695        2.6941665684
 H         -1.7548999402       -2.7876939548        3.3138010379
 H          0.1072752539       -4.7210117288        1.7499220803
 H          0.5614451999       -3.0845706055        2.3758050644
 H         -1.7081294633       -3.6767352893        0.3543536590
