  62
        -98.93681544
 C         -1.8414121495       -0.2109229004       -0.1985279200
 C         -2.9727261894       -0.3551992111       -1.0339338601
 C         -4.2741188795       -0.4809879807       -0.3572321901
 C         -4.3223167397       -0.4575894897        0.9859954898
 C         -5.5253496498       -0.6078465591        1.8835597698
 C         -6.8084671598        0.1320832905        1.4810837390
 C         -6.5883117498        1.4732416200        0.7661941281
 H         -7.1837079799        2.2417217503        1.2626617774
 H         -5.5414354298        1.7714585901        0.8434761080
 C         -7.0011307396        1.4391204289       -0.7072848620
 H         -7.1725917796        2.4630074186       -1.0481811228
 H         -7.9491490895        0.9035368187       -0.7932945717
 C         -5.9837400494        0.8103368182       -1.6585136914
 H         -6.4445581292        0.7412705774       -2.6469246114
 H         -5.1136589794        1.4651234382       -1.7564681817
 C         -5.4737752593       -0.5826711314       -1.2549393002
 H         -6.2651343394       -1.1773652512       -0.8051261499
 H         -5.1297623592       -1.0892533321       -2.1610139498
 H         -7.3770127899        0.2973541112        2.3978496288
 H         -7.4172240996       -0.5115542200        0.8475762494
 H         -5.7443062997       -1.6751433490        1.9820302505
 H         -5.1927201800       -0.2570359683        2.8633712196
 O         -3.2037106398       -0.3189420990        1.7531474599
 C         -1.9428606297       -0.1932869493        1.1916326900
 O         -1.0198816199       -0.0758294886        2.0188632100
 H          2.2028855505        0.0294526300       -0.1732349996
 C          1.7852095705       -0.9598050300       -0.0863256289
 C          0.4479305206       -1.1830025203       -0.3762674389
 C         -0.0480808993       -2.4799021703       -0.2682494780
 C          0.7651980707       -3.5170427999        0.1431806129
 C          2.0987992506       -3.2890142496        0.4338895229
 C          2.6099333705       -2.0038596696        0.3115093120
 N          3.9565584505       -1.7370254593        0.6012190420
 S          4.8340995605       -0.7288462200       -0.4057513886
 O          4.3794221308       -0.8149445411       -1.7737869786
 O          6.2159097705       -1.0940431297       -0.1734156682
 C          4.5677068703        0.9121745205        0.2302000001
 C          4.4971338504        1.9666592298       -0.6583712707
 C          4.3478221302        3.2531008602       -0.1636126917
 C          4.2715777600        3.4609448112        1.2047701281
 C          4.3446375299        2.3908355618        2.0837707689
 C          4.4993141701        1.1030587915        1.5959958599
 H          4.5571443001        0.2501279020        2.2512724306
 H          4.2813307098        2.5560077226        3.1473238188
 H          4.1528947899        4.4621670215        1.5881152674
 H          4.2905183802        4.0860331396       -0.8465216323
 H          4.5483013605        1.7585639990       -1.7152354306
 H          4.4973162305       -2.5431515291        0.8793598827
 H          2.7376488206       -4.0988514493        0.7524838536
 H          0.3609746408       -4.5144387999        0.2309358736
 H         -1.0871524293       -2.6637155905       -0.5056692580
 C         -0.4703700094       -0.0760447607       -0.8323659999
 H         -0.6343534493       -0.1993001816       -1.9141795298
 C          0.0847548104        1.3107034495       -0.5801093309
 C          0.9884426505        1.9647296988       -1.5806704412
 C         -0.4188608596        2.4506705888       -1.4121585018
 H         -0.5820700997        3.4053476892       -0.9354003025
 H         -1.1377248894        2.2189138282       -2.1846575417
 H          1.2341377307        1.4082715182       -2.4729419008
 H          1.7912195804        2.5870073892       -1.2149797816
 H          0.2648932602        1.4988600003        0.4725998990
 O         -2.8985858092       -0.3934776220       -2.2920798100
