  62
        -98.92637809
 C         -1.9561551443       -0.8872164405        0.1936716243
 C         -2.2400466183        0.1582383044        1.0990060703
 C         -2.5306645918        1.4788126027        0.5186024349
 C         -2.4942395613        1.6324623479       -0.8181962079
 C         -2.6845280648        2.8624798090       -1.6813111511
 C         -3.3492947832        4.1174085008       -1.1204083751
 C         -4.8218465967        3.9534193047       -0.7475122780
 H         -5.1620654084        4.8856285020       -0.2913718527
 H         -5.3983733405        3.7996909859       -1.6629482570
 C         -5.1370166207        2.7959295186        0.1966544584
 H         -6.2116053096        2.8114643989        0.3975707961
 H         -4.9155458918        1.8478458292       -0.2977848001
 C         -4.4127545994        2.8330155473        1.5414267238
 H         -4.8573944675        2.0610821549        2.1751780648
 H         -4.5792172791        3.7981672684        2.0234216475
 C         -2.8972039085        2.5656492115        1.4874284929
 H         -2.3382329236        3.4732590274        1.2699313682
 H         -2.5779488699        2.2164345053        2.4740478025
 H         -2.7837865598        4.4960120572       -0.2739941553
 H         -3.2900378537        4.8758311859       -1.9058697329
 H         -1.6821367931        3.1299171986       -2.0344087377
 H         -3.2425445401        2.5235880532       -2.5598677900
 O         -2.1994479881        0.5948338915       -1.6539706887
 C         -1.9196362595       -0.6780089733       -1.1835209040
 O         -1.6667258274       -1.5076172183       -2.0758471440
 H          0.5365205196       -0.8578757226        0.6854800287
 C          0.7138063958       -1.8100788462        0.2048615833
 C         -0.3292296586       -2.7330262569        0.1213338589
 C         -0.0591226407       -3.9500706855       -0.4882078900
 C          1.2017589294       -4.2201746661       -0.9985308365
 C          2.2196483049       -3.2919514478       -0.9288692693
 C          1.9623898285       -2.0610653188       -0.3308673254
 N          2.9561855968       -1.0690438367       -0.3058562902
 S          2.7588475691        0.3735492954        0.5236032842
 O          2.6151072929        0.1392057321        1.9451407041
 O          1.7154902657        1.1391972895       -0.1127802795
 C          4.3450617042        1.1180459039        0.1942622811
 C          4.5570507893        1.6971205542       -1.0427206216
 C          5.7959427902        2.2526932479       -1.3197049643
 C          6.7977900374        2.2195392765       -0.3607798223
 C          6.5701861991        1.6368346093        0.8766865752
 C          5.3331669113        1.0786901487        1.1595369437
 H          5.1067411498        0.6226000305        2.1098019838
 H          7.3495415945        1.6152101339        1.6211643470
 H          7.7609028468        2.6531758086       -0.5788575801
 H          5.9749848164        2.7087213732       -2.2800223609
 H          3.7452667319        1.7057880655       -1.7516817953
 H          3.9004525351       -1.4239393649       -0.2748149346
 H          3.1945160449       -3.5023792676       -1.3398485750
 H          1.3858614402       -5.1755085952       -1.4665518912
 H         -0.8181447888       -4.7028196743       -0.5941024334
 C         -1.6244118630       -2.2679056063        0.7454053789
 H         -1.4074977321       -2.0941026772        1.8148398508
 C         -2.8947060082       -3.1048648054        0.7106799469
 C         -3.3485835383       -3.9441751397       -0.4415149804
 C         -2.9786679493       -4.5943595478        0.8602475255
 H         -3.7804501985       -4.9853536964        1.4695953523
 H         -2.0678702901       -5.1645567514        0.9339317875
 H         -4.3940229924       -3.9023767060       -0.7114889164
 H         -2.6929575574       -4.0234927938       -1.2932612004
 H         -3.6805865376       -2.5482301297        1.2183442858
 O         -2.2440555511       -0.0036302993        2.3521572325
