  62
        -98.94113570
 C         -2.0543896810       -0.3738900304       -0.0005291100
 C         -3.1295219012       -1.1369868098        0.5250253606
 C         -4.3430320511       -0.3922157293        0.8765422500
 C         -4.3624304708        0.9464462906        0.7487054991
 C         -5.5135563906        1.8523805210        1.0924712385
 C         -6.5665055706        1.9743278004       -0.0176516616
 C         -7.4481397108        0.7407730005       -0.2173307707
 H         -7.8774859209        0.4439174212        0.7400882295
 H         -8.2741298708        1.0393189502       -0.8659359710
 C         -6.7280824811       -0.4559344001       -0.8545982499
 H         -7.3501267111       -0.8749198005       -1.6487928496
 H         -5.8008515610       -0.1153243006       -1.3215337601
 C         -6.4060178213       -1.5918775795        0.1165533609
 H         -5.8662472214       -2.3688652300       -0.4310380086
 H         -7.3347415114       -2.0282768291        0.4905581212
 C         -5.5456939112       -1.1715888988        1.3154409106
 H         -6.1400506111       -0.5900186682        2.0198068102
 H         -5.1911385614       -2.0750550585        1.8175620512
 H         -7.2118683105        2.8180927707        0.2375108278
 H         -6.0599060206        2.2161537697       -0.9549888918
 H         -5.9897898107        1.5069715017        2.0106229287
 H         -5.0869399605        2.8415024311        1.2729438978
 O         -3.2914274107        1.6502058601        0.2989227086
 C         -2.1194912908        1.0168696796       -0.1034957709
 O         -1.2464388706        1.8026800191       -0.5150500415
 O         -3.0741243714       -2.3833273297        0.6975843814
 C         -0.7938537612       -1.1278805309       -0.3877495194
 C          0.4131537089       -0.4665506807        0.2251992401
 C          0.6100700489       -0.5694876398        1.5994580402
 C          1.6856167590        0.0481117905        2.2085968897
 C          2.5908881592        0.7790242198        1.4596436792
 C          2.4058779892        0.8837432988        0.0876437392
 C          1.3295319091        0.2534865486       -0.5242654004
 H          1.1838385991        0.3645835479       -1.5873174705
 N          3.3201299993        1.6230704281       -0.6770698513
 S          4.9512822293        1.4791707681       -0.3553248012
 O          5.3044898794        2.2918139188        0.7824012882
 O          5.6125132894        1.8134817271       -1.5974126415
 C          5.1990758590       -0.2444345917        0.0369161400
 C          5.6817810989       -0.6078076309        1.2773712602
 C          5.8408753987       -1.9536077508        1.5675619111
 C          5.5127951985       -2.9079809814        0.6176890018
 C          5.0322881686       -2.5270335321       -0.6260880585
 C          4.8727824388       -1.1832900923       -0.9218580794
 H          4.5083645589       -0.8537626129       -1.8814993796
 H          4.7794977584       -3.2716485326       -1.3637552479
 H          5.6328806483       -3.9552242512        0.8461862425
 H          6.2165969486       -2.2522572002        2.5329374713
 H          5.9230764390        0.1665500795        1.9872824797
 H          3.1208271593        1.6441665475       -1.6653320814
 H          3.4227680493        1.2867944199        1.9200678689
 H          1.8202102690       -0.0348311088        3.2763773598
 H         -0.1023964612       -1.1316440492        2.1875125606
 H         -0.9168726714       -2.1149028605        0.0876090212
 C         -0.6470583412       -1.3865929319       -1.8797607593
 C         -1.8535137413       -1.6427555523       -2.7312857991
 C         -1.0508104210       -0.3931315726       -2.9262344099
 H         -0.4420199410       -0.3116819233       -3.8154916300
 H         -1.4665472709        0.5464550077       -2.5977882106
 H         -1.8000974614       -2.4140935728       -3.4847210986
 H         -2.8220242113       -1.5587439518       -2.2600278891
 H          0.2306407587       -1.9880600023       -2.0968726588
