  62
        -98.94670552
 C         -0.1792446987       -1.9755814536       -0.5783526604
 C          0.4627784088       -2.2285408446        0.6578442862
 C          1.9203240396       -2.0605991458        0.6613938835
 C          2.5574314326       -1.7085200215       -0.4700682429
 C          4.0461089100       -1.5618151717       -0.6331010451
 C          4.5901299656       -0.1895498246       -0.2159114510
 C          4.5945685422        0.0844349123        1.2880055317
 H          5.1032110735       -0.7297480949        1.8051366920
 H          5.1840470552        0.9891280983        1.4467792991
 C          3.2001389131        0.2911478098        1.8960757515
 H          2.4803677453        0.5012620866        1.1009494688
 H          3.2127559990        1.1649263544        2.5507912270
 C          2.6944449799       -0.8886917995        2.7270638877
 H          1.6833623245       -0.6574719147        3.0726379954
 H          3.3301134436       -1.0175499140        3.6060074078
 C          2.6403163987       -2.2200168100        1.9657276912
 H          3.6471085802       -2.6049223434        1.8055259041
 H          2.0810168202       -2.9389460693        2.5692669487
 H          5.6177635537       -0.1220798335       -0.5800685477
 H          4.0005914964        0.5778915855       -0.7183731337
 H          4.5517182618       -2.3458252021       -0.0685694892
 H          4.2582159601       -1.7073279679       -1.6945476766
 O          1.9007573238       -1.4660115574       -1.6365708061
 C          0.5201545744       -1.5637563535       -1.7113651394
 O          0.0427271446       -1.2653805719       -2.8260521811
 O         -0.1453965009       -2.5831449114        1.7006738980
 C         -1.6881476721       -2.1017217372       -0.6754463975
 C         -2.3371574521       -1.1742564986        0.3234530053
 C         -3.3381095324       -1.5656705094        1.2021253825
 C         -3.8828449960       -0.6542799643        2.0903280423
 C         -3.4655767914        0.6635222080        2.1002844067
 C         -2.4728637563        1.0689058347        1.2147217589
 C         -1.9097716891        0.1477245549        0.3484558406
 H         -1.1303278509        0.4636567398       -0.3299629196
 N         -2.0253823891        2.3987612910        1.1865015539
 S         -1.7334824934        3.1454956313       -0.2854901169
 O         -2.0040013523        4.5464607046       -0.0364872753
 O         -2.4899142525        2.5307366619       -1.3499311910
 C          0.0159421015        2.9686158271       -0.5628179682
 C          0.4843470499        2.2261628052       -1.6278242744
 C          1.8497493121        2.1798035088       -1.8640201614
 C          2.7176255751        2.8783395537       -1.0387787271
 C          2.2330781107        3.6055380723        0.0383035391
 C          0.8705404162        3.6537806548        0.2795764287
 H          0.4513771898        4.2247765840        1.0911189652
 H          2.9133899950        4.1388222357        0.6821639300
 H          3.7774761899        2.8631161617       -1.2402605664
 H          2.2195627545        1.5950977456       -2.6923575421
 H         -0.2141468492        1.6974162746       -2.2594149993
 H         -2.5049323576        3.0176455758        1.8242506735
 H         -3.8996009216        1.3752044041        2.7862707605
 H         -4.6516567452       -0.9732599070        2.7778187264
 H         -3.6864512545       -2.5853085431        1.1993205357
 H         -1.9634094318       -1.7545865308       -1.6828748501
 C         -2.1056933542       -3.5497875453       -0.5267669138
 C         -3.3646860473       -4.0416599192       -1.1732673208
 C         -2.0313231497       -4.4495645359       -1.7221461253
 H         -1.7038595567       -5.4687165304       -1.5817885251
 H         -1.7030379387       -4.0100695189       -2.6531763959
 H         -3.9540213226       -4.7851953477       -0.6581788400
 H         -3.9479390966       -3.3291739441       -1.7372459859
 H         -1.8229630007       -3.9678525826        0.4324263115
