  62
        -98.94726368
 C         -0.9538043277       -1.5451494884       -0.8670956821
 C         -2.2607910735       -1.5129632633       -0.3152375308
 C         -3.0504347811       -0.3055839703       -0.5715078173
 C         -2.5210538929        0.6897486301       -1.3042929731
 C         -3.1785565569        2.0043396502       -1.6244553218
 C         -3.0273940414        3.0443749959       -0.5054002666
 C         -3.9092397790        2.8074854865        0.7212830216
 H         -3.8930093318        3.7277373930        1.3089182345
 H         -4.9394894633        2.6395702174        0.4042071465
 C         -3.4446996325        1.6491230491        1.6155149890
 H         -3.4799183201        1.9638350282        2.6617515782
 H         -2.3994833545        1.4141408135        1.3964473034
 C         -4.2863220592        0.3774080089        1.5006084040
 H         -3.8323269257       -0.3876878604        2.1357424662
 H         -5.2947145772        0.5721424423        1.8743179972
 C         -4.3952177417       -0.1906566752        0.0800212143
 H         -4.8191658809       -1.1959524982        0.1468307112
 H         -5.0579229046        0.4296681649       -0.5233307831
 H         -1.9813672104        3.0718824319       -0.1876639752
 H         -3.2774422496        4.0213799890       -0.9264157891
 H         -4.2361645115        1.8491670394       -1.8397342917
 H         -2.6922709760        2.3879010047       -2.5240931692
 O         -1.2891350397        0.6024888783       -1.8635337063
 C         -0.4588899201       -0.4860872239       -1.6286272069
 O          0.6602327800       -0.3717485138       -2.1669970079
 O         -2.7444425917       -2.4578994612        0.3662108928
 C         -0.0868826330       -2.7273305347       -0.4661479800
 C          0.6429970294       -2.3768662899        0.8110409077
 C          0.6463060221       -3.2284153961        1.9090177069
 C          1.2553023210       -2.8458833600        3.0917769313
 C          1.8335581063       -1.5949597526        3.2158504842
 C          1.8363908538       -0.7385453975        2.1210313481
 C          1.2842403123       -1.1520861164        0.9198176418
 H          1.3143198736       -0.4850106847        0.0742107315
 N          2.3742855578        0.5551266730        2.1925211974
 S          1.5843791627        1.7930681893        1.3770497723
 O          1.9609511927        2.9922327837        2.1015129222
 O          0.1636150185        1.5513862643        1.2757134314
 C          2.3439130774        1.8608709857       -0.2292653460
 C          3.6538451522        1.4537498506       -0.3816059810
 C          4.2468369208        1.5677936996       -1.6282214532
 C          3.5279571282        2.0908866364       -2.6918263449
 C          2.2158846167        2.5001638617       -2.5201637558
 C          1.6160445914        2.3852375027       -1.2770729267
 H          0.5896062320        2.6722256215       -1.1093565323
 H          1.6512953722        2.8959527492       -3.3490933944
 H          3.9898977684        2.1741783145       -3.6631053737
 H          5.2659063398        1.2440076385       -1.7675441081
 H          4.1804877631        1.0441841606        0.4645116734
 H          2.6775318031        0.8475010973        3.1102760860
 H          2.2684559052       -1.2787505080        4.1517123194
 H          1.2524223859       -3.5165075435        3.9376681677
 H          0.1474915525       -4.1837004864        1.8410117292
 H         -0.7856558307       -3.5439442847       -0.2371840617
 C          0.8806180876       -3.2044916272       -1.5292323289
 C          1.3691076541       -4.6204880531       -1.4862149253
 C          0.4148553875       -4.1887564485       -2.5581102578
 H          0.7795615581       -4.0852620453       -3.5686484963
 H         -0.6091074328       -4.5278075304       -2.4968032581
 H          2.3939998719       -4.8180882153       -1.7595042340
 H          0.9920796082       -5.2586301553       -0.7015930985
 H          1.5745417761       -2.4393823166       -1.8509659438
