  62
        -98.94795095
 C         -1.2535472769       -0.7892565584        0.3809094995
 C         -2.0899338246       -0.5882118165       -0.7428207279
 C         -3.0548504048        0.5151695606       -0.6314069221
 C         -3.0465274305        1.2917961079        0.4672483320
 C         -4.0019480158        2.4196346814        0.7274322739
 C         -5.2445069064        1.9337157775        1.4869652950
 C         -5.8925051103        0.6899610567        0.8785631444
 H         -5.2045815145       -0.1529506594        0.9754319647
 H         -6.7746015799        0.4567392992        1.4786728286
 C         -6.3007939130        0.8429025130       -0.5932459821
 H         -6.3479158331        1.9001759128       -0.8565953714
 H         -7.3038686646        0.4312683783       -0.7230906829
 C         -5.3889736211        0.1151255040       -1.5828568555
 H         -5.2640378476       -0.9242545931       -1.2693570274
 H         -5.8835794870        0.1062586077       -2.5577291898
 C         -3.9968642535        0.7277984001       -1.7829214551
 H         -3.5337467913        0.2315470974       -2.6410951389
 H         -4.0908053354        1.7913161344       -2.0130767088
 H         -5.9705805981        2.7482054010        1.5161455764
 H         -4.9529192961        1.7013412041        2.5138356655
 H         -3.4877985845        3.1725022207        1.3277776481
 H         -4.2935497081        2.8665546304       -0.2211977478
 O         -2.1838094645        1.1073564501        1.4991360804
 C         -1.2663641928        0.0703171798        1.4788925103
 O         -0.5242367821        0.0184213673        2.4819953738
 H          0.8340034270        0.4291244855       -0.3179676953
 C          1.2560938485       -0.3760221610       -0.8994117445
 C          0.7952247015       -1.6715530811       -0.7119646956
 C          1.3315045047       -2.6841505640       -1.4973851495
 C          2.2941375530       -2.3934304335       -2.4490050213
 C          2.7640202791       -1.1033673919       -2.6179543231
 C          2.2379059027       -0.0848515044       -1.8317471550
 N          2.6876770622        1.2398301594       -1.9481855073
 S          2.8393570709        2.1607996539       -0.5582803912
 O          1.5467368326        2.6159269095       -0.1103030648
 O          3.7786921712        3.2006962253       -0.9231372318
 C          3.5925543518        1.0606622003        0.6279039428
 C          2.8721331285        0.5455372905        1.6856394904
 C          3.4929461230       -0.3534685752        2.5400130082
 C          4.8119420429       -0.7196345228        2.3259012871
 C          5.5256247320       -0.1850208803        1.2635401022
 C          4.9110963878        0.7101969411        0.4047241448
 H          5.4340777990        1.1566157943       -0.4254321209
 H          6.5537618529       -0.4657327135        1.1018032775
 H          5.2855563336       -1.4227590104        2.9926750200
 H          2.9297400120       -0.7624905179        3.3639129488
 H          1.8437940351        0.8363864291        1.8367878960
 H          3.4683502187        1.3719648612       -2.5743299344
 H          3.5216053338       -0.8823979619       -3.3538406522
 H          2.6939624325       -3.1869655956       -3.0616182462
 H          0.9906835650       -3.6984554166       -1.3701766764
 C         -0.2283694647       -1.9077394457        0.3732866327
 H          0.2972321533       -1.8412439303        1.3382292510
 C         -0.9081250357       -3.2580312493        0.2816693522
 C         -0.2925680602       -4.4587804030        0.9332537295
 C         -1.5255786430       -3.8393214614        1.5170568970
 H         -2.4637329034       -4.3659419241        1.4264821458
 H         -1.4315554413       -3.2716374815        2.4318134713
 H         -0.3866401074       -5.4162037110        0.4434136455
 H          0.6395865446       -4.3199065924        1.4596251343
 H         -1.4375113247       -3.3942418426       -0.6539866680
 O         -2.0360494231       -1.2915371256       -1.7856365753
