  62
        -98.93800161
 C         -2.4278997487       -0.4025668340        0.4701308595
 C         -3.2237148233       -0.3601901354       -0.7018834795
 C         -4.3173630189        0.6239635906       -0.6903416072
 C         -4.4789159595        1.4445898941        0.3620233907
 C         -5.5259559206        2.5161912883        0.5008559297
 C         -6.8809104710        2.0029726204        1.0072554693
 C         -7.6875781668        1.1886131469       -0.0049983392
 H         -8.6955103117        1.0809811891        0.4007554932
 H         -7.7701282878        1.7488183253       -0.9368600853
 C         -7.1192008560       -0.2084769934       -0.2906695989
 H         -6.4158792046       -0.4836811110        0.4988241587
 H         -7.9281051296       -0.9423198395       -0.2678032156
 C         -6.4218661691       -0.3446683618       -1.6443079124
 H         -7.1488347283       -0.2003224018       -2.4466173654
 H         -6.0278973083       -1.3609275253       -1.7261806952
 C         -5.2587523851        0.6330249570       -1.8570932070
 H         -4.6982077930        0.3120169720       -2.7383814784
 H         -5.6399978274        1.6388490087       -2.0313524753
 H         -7.4730837068        2.8750285257        1.2941267131
 H         -6.7140024061        1.4048865161        1.9061755287
 H         -5.6616991214        3.0225560660       -0.4551701757
 H         -5.1382422121        3.2365671055        1.2243619800
 O         -3.6645434207        1.4026966901        1.4507614680
 C         -2.6446652288        0.4719254892        1.5385841020
 O         -2.0032869390        0.5174856349        2.6087415705
 O         -3.0488500338       -1.0876256558       -1.7113882072
 C         -1.2813732340       -1.3819950286        0.6621396027
 C          0.0023934832       -0.8131113138        0.1151826162
 C          0.0918084615       -0.3604125811       -1.1976523333
 C          1.2819766487        0.1511892007       -1.6813644641
 C          2.4009684769        0.2288760274       -0.8701878151
 C          2.3212454766       -0.2145048252        0.4426312538
 C          1.1261387349       -0.7342532332        0.9241669173
 H          1.0650064184       -1.0689423240        1.9514044212
 N          3.4487315286       -0.1203511971        1.2752278975
 S          4.9076443441       -0.7352307534        0.7164546163
 O          4.6976491634       -1.8195493126       -0.2142791363
 O          5.6655618607       -1.0468555199        1.9082808259
 C          5.6692900459        0.6445371427       -0.1108223190
 C          6.0831180745        0.5173228681       -1.4222938243
 C          6.6872577241        1.6001651919       -2.0421746686
 C          6.8666952090        2.7838009673       -1.3428885230
 C          6.4471397767        2.8945241129       -0.0254111400
 C          5.8435592057        1.8156145794        0.6004213648
 H          5.5070591972        1.8600038670        1.6228609622
 H          6.5881134655        3.8168407163        0.5147978741
 H          7.3364042658        3.6252225871       -1.8274094303
 H          7.0144007203        1.5162659132       -3.0660981421
 H          5.9183136343       -0.4207994538       -1.9280784433
 H          3.2782104075       -0.4050183001        2.2288569627
 H          3.3293051085        0.6290811976       -1.2438396824
 H          1.3392923991        0.4963094801       -2.7025857790
 H         -0.7796522770       -0.4202204983       -1.8318267088
 H         -1.1627520576       -1.4701491369        1.7540594007
 C         -1.5928422176       -2.7760656467        0.1335620241
 C         -0.9098875630       -3.3993061317       -1.0425691505
 C         -0.6065842035       -3.8880592990        0.3397809919
 H         -0.9716857208       -4.8574721864        0.6436619213
 H          0.3551884848       -3.6280516249        0.7578990556
 H         -1.5075042041       -4.0171122680       -1.6952005546
 H         -0.1503763283       -2.8325873863       -1.5572582658
 H         -2.6396680699       -3.0304217389        0.2653558813
