  62
        -98.93003460
 C         -2.4672856128       -1.2545656974       -0.0913240145
 C         -2.3277519899        0.0495569204       -0.6260087656
 C         -3.5863711750        0.7736437717       -0.8750508918
 C         -4.7624744603        0.1699901120       -0.6295348325
 C         -6.1099189913        0.8107089409       -0.7908292000
 C         -6.5646030148        1.4807488712        0.5134785658
 C         -5.5061155269        2.3851960443        1.1447768209
 H         -5.9479566487        2.8261854957        2.0408757552
 H         -4.6617980400        1.7731200786        1.4704445196
 C         -4.9949720023        3.5022285361        0.2242839733
 H         -5.6943912231        3.6534727912       -0.5986438262
 H         -4.9561914782        4.4339075280        0.7925336644
 C         -3.5926884088        3.2671924527       -0.3406721483
 H         -3.2465845410        4.2012138722       -0.7914102345
 H         -2.9049156445        3.0219383197        0.4728490997
 C         -3.4792011249        2.1738576008       -1.4107053665
 H         -4.2203289266        2.3457571528       -2.1939081000
 H         -2.4833240790        2.2474109354       -1.8578860877
 H         -6.8198787053        0.6993540886        1.2328324527
 H         -7.4658125090        2.0608804311        0.3072962793
 H         -6.0638710158        1.5448770354       -1.5926922350
 H         -6.8286681371        0.0352515622       -1.0606533532
 O         -4.8556061072       -1.0969847734       -0.1507235756
 C         -3.7197123889       -1.8288664176        0.1419939869
 O         -3.9479301830       -2.9670413533        0.5998677160
 H          1.1102556547       -0.7570496885       -0.4914612590
 C          0.8614881001       -0.7160669309        0.5529431413
 C         -0.2696951210       -1.3411712740        1.0552878411
 C         -0.5586860823       -1.1717895291        2.4089170052
 C          0.2486698901       -0.4063314689        3.2287532767
 C          1.3876334115        0.1937736165        2.7236368278
 C          1.6896529527        0.0292581837        1.3781437278
 N          2.8785404235        0.5992553863        0.8612330484
 S          3.5773431402       -0.0193030130       -0.5244578744
 O          3.0203500186        0.5558471275       -1.7314528530
 O          3.5671904469       -1.4569186292       -0.4207481984
 C          5.2417193053        0.5820908891       -0.2992040249
 C          6.0214825107       -0.0122183190        0.6748178752
 C          7.3083741190        0.4563874444        0.8832017250
 C          7.7926490293        1.5080351232        0.1190054243
 C          6.9995519462        2.0943313696       -0.8551782651
 C          5.7107501371        1.6295046590       -1.0675768041
 H          5.0605429882        2.0505260311       -1.8177656724
 H          7.3789041571        2.9100484950       -1.4495117981
 H          8.7949951278        1.8713023204        0.2824800070
 H          7.9287441202        0.0017913377        1.6387692717
 H          5.6045326252       -0.8303712693        1.2387132370
 H          2.9167216350        1.6063004045        0.9022178007
 H          2.0308298135        0.7881690591        3.3525455153
 H         -0.0080530482       -0.2829037241        4.2700673036
 H         -1.4476448655       -1.6399434668        2.8108356836
 C         -1.2651128443       -2.1321042294        0.2467177950
 H         -1.6694130700       -2.9021532873        0.9236648989
 C         -0.8263687276       -2.8981109425       -0.9952390145
 C         -0.1630162952       -2.3077440568       -2.2018428021
 C          0.5782352274       -3.2888899164       -1.3417558097
 H          0.7386879183       -4.2822169010       -1.7354436544
 H          1.3949302708       -2.9281800609       -0.7358021986
 H         -0.5070691892       -2.6346586399       -3.1735857265
 H          0.1185130864       -1.2664041572       -2.1841836169
 H         -1.5840171207       -3.6458547651       -1.2228653639
 O         -1.2263832920        0.6002455129       -0.8832712808
