  62
        -98.94576664
 C          2.2990895251        0.9851706600        0.2769249004
 C          2.1269209694        0.0925501912       -0.8088523873
 C          2.6153006663       -1.2775389928       -0.5928228200
 C          3.1399878873       -1.6110870904        0.6004120753
 C          3.6091417992       -2.9860419770        0.9769421286
 C          2.4748382286       -3.8092350921        1.6040490065
 C          1.1786665971       -3.7979855942        0.7928207575
 H          0.4657207300       -4.4395460169        1.3154511514
 H          0.7637398448       -2.7871071852        0.7942174084
 C          1.3368272836       -4.2763217317       -0.6571848562
 H          0.5258560272       -4.9688692085       -0.8908658421
 H          2.2710531528       -4.8286680255       -0.7640657610
 C          1.2867244144       -3.1573187600       -1.6987042193
 H          0.4027596705       -2.5375065280       -1.5316480979
 H          1.1879277595       -3.6157759428       -2.6858540760
 C          2.5121038082       -2.2370391073       -1.7450935026
 H          3.4219773600       -2.8352549624       -1.8274334023
 H          2.4250862540       -1.6166799730       -2.6417267913
 H          2.8218946439       -4.8371824070        1.7241305000
 H          2.2624566117       -3.4056211070        2.5969965330
 H          3.9904507849       -3.4894082983        0.0906243127
 H          4.4178027033       -2.8868382660        1.7030771549
 O          3.2544781595       -0.7343905204        1.6318135648
 C          2.8441651412        0.5817904622        1.4951804479
 O          3.0051009556        1.2802532035        2.5178689256
 O          1.5981442222        0.4193856238       -1.9020402212
 C          1.8600002917        2.4328714327        0.1447089933
 C          0.3706162806        2.5001415179       -0.0943247258
 C         -0.2113414958        3.2190019677       -1.1292120739
 C         -1.5879733033        3.2413847344       -1.2769286322
 C         -2.4102615547        2.5603776598       -0.3989249576
 C         -1.8384317417        1.8351682052        0.6399143656
 C         -0.4589694965        1.8100172746        0.7818960728
 H         -0.0116599437        1.2509112593        1.5951840463
 N         -2.6532930849        1.1587108925        1.5631364216
 S         -3.9637869376        0.2495109412        1.0661492547
 O         -4.9672038437        1.1218452014        0.5103509901
 O         -4.3492271176       -0.5068699990        2.2353695755
 C         -3.3502402041       -0.8534667624       -0.1919498148
 C         -3.4163704868       -0.4874323880       -1.5210373444
 C         -2.9092998456       -1.3516476389       -2.4785789817
 C         -2.3534345994       -2.5613730575       -2.0937124926
 C         -2.2960865418       -2.9154129257       -0.7539869793
 C         -2.7921313648       -2.0517496722        0.2080709616
 H         -2.7744863556       -2.2934845219        1.2588466681
 H         -1.8633489693       -3.8569819180       -0.4567993284
 H         -1.9625597253       -3.2333818596       -2.8413265419
 H         -2.9493049805       -1.0779784393       -3.5205016981
 H         -3.8696679627        0.4532660574       -1.7852171753
 H         -2.1388008460        0.6745753021        2.2836029627
 H         -3.4835519087        2.5870126752       -0.4931105396
 H         -2.0281397669        3.8044363932       -2.0858627452
 H          0.4109218350        3.7603159754       -1.8221116957
 H          2.0633623895        2.9009848420        1.1191957768
 C          2.6824309041        3.1375786575       -0.9132308374
 C          2.9026697709        4.6172715227       -0.8318921274
 C          4.0303110688        3.6744230086       -0.5402787440
 H          4.8346527891        3.5925086333       -1.2558217150
 H          4.3465310097        3.5533055481        0.4859542634
 H          2.9367161869        5.1858620456       -1.7489039622
 H          2.4563362193        5.1446636742       -0.0023307860
 H          2.5787949886        2.6863813734       -1.8929189605
