  62
        -98.93738392
 C          2.2932320704        0.2607208738       -0.4425944580
 C          3.5067339405        0.4038314693       -1.1632347966
 C          4.7197112104        0.5826430330       -0.3585044950
 C          4.6238364501        0.6574526626        0.9810133056
 C          5.7660931299        0.8559694852        1.9400868473
 C          6.5065201898       -0.4382857877        2.3045961575
 C          7.3881544800       -1.0187560292        1.1979857232
 H          8.0545637601       -0.2424931363        0.8208128593
 H          8.0115116698       -1.7890151828        1.6563882473
 C          6.6110533102       -1.6441273301        0.0310296982
 H          7.0472623902       -2.6136573582       -0.2199193092
 H          5.5789460501       -1.8291110624        0.3385739665
 C          6.6042793605       -0.8058198502       -1.2474532753
 H          7.6204921806       -0.7278266072       -1.6399589445
 H          5.9942536306       -1.3222438344       -1.9932970795
 C          6.0386465905        0.6092671684       -1.0700099045
 H          5.8724383407        1.0394467061       -2.0606567512
 H          6.7498860104        1.2343769442       -0.5308027295
 H          7.1406159596       -0.2183510744        3.1665101493
 H          5.7720241097       -1.1852321001        2.6147234815
 H          6.4720039400        1.5757993383        1.5247843231
 H          5.3362361498        1.2756326581        2.8520239605
 O          3.4335366800        0.5822020177        1.6323961047
 C          2.2420323401        0.3685938830        0.9478408528
 O          1.2434534299        0.3090198173        1.6888524222
 O          3.5707058008        0.3902202090       -2.4213607367
 C          1.0262430705        0.0381452901       -1.2466598700
 C         -0.0824183395        0.9396412264       -0.7666009432
 C          0.1070986406        2.3188870068       -0.8223286725
 C         -0.8835673595        3.1865890937       -0.4079322160
 C         -2.0968807496        2.6995993602        0.0466321500
 C         -2.2947218597        1.3263768897        0.1092367393
 C         -1.2888001296        0.4561786228       -0.2886432572
 H         -1.4663056097       -0.6031772879       -0.2059017154
 N         -3.5062959098        0.7942675862        0.5777090350
 S         -4.0956607497       -0.6026733081       -0.1633848560
 O         -3.5558269899       -1.7586217733        0.5072737952
 O         -3.8762976594       -0.5339208370       -1.5908477254
 C         -5.8371942998       -0.4566608107        0.1959047348
 C         -6.6654535496        0.1486442965       -0.7307352007
 C         -8.0127568296        0.2870975143       -0.4368747099
 C         -8.5062452399       -0.1769072251        0.7733105764
 C         -7.6631145001       -0.7826720522        1.6930657319
 C         -6.3149196201       -0.9253105001        1.4051488511
 H         -5.6237379002       -1.3966931854        2.0844099376
 H         -8.0509332003       -1.1450558695        2.6313903490
 H         -9.5551977999       -0.0687593668        0.9997025270
 H         -8.6711615095        0.7543635898       -1.1513237264
 H         -6.2393501094        0.4844273337       -1.6624927680
 H         -4.2260035598        1.4927931253        0.7013024802
 H         -2.8770217296        3.3763485378        0.3609264751
 H         -0.7169623794        4.2525847540       -0.4508426877
 H          1.0506932207        2.6998105096       -1.1900735294
 H          1.2938744208        0.3563124180       -2.2694106074
 C          0.6050238405       -1.4202752591       -1.3478523013
 C          1.6135285204       -2.5269438197       -1.2856684197
 C          0.6310642402       -2.3452069482       -0.1696346785
 H         -0.1740271399       -3.0585252090       -0.0641802342
 H          0.9809462100       -1.9467042155        0.7698930647
 H          1.4921853705       -3.3701185945       -1.9488906062
 H          2.6437517904       -2.2545065911       -1.1072604574
 H         -0.2147129494       -1.5558322237       -2.0486085025
