  62
        -98.94964662
 C          1.6935483317        1.2141701675        0.3382917935
 C          1.3268243838        0.1557545023       -0.5252253402
 C          1.8687496107       -1.1632989264       -0.1874668837
 C          2.6236334180       -1.3112235036        0.9159224796
 C          3.2159297741       -2.6007743231        1.4164597837
 C          4.5425361548       -2.9859070633        0.7467948037
 C          4.4272744122       -3.4720686811       -0.6984980541
 H          5.3907059295       -3.9108218199       -0.9655208666
 H          3.6810262441       -4.2651892200       -0.7538192843
 C          4.0878994842       -2.3704121539       -1.7119957909
 H          4.2821909403       -1.3929779467       -1.2646349333
 H          4.7426437945       -2.4617080423       -2.5814434499
 C          2.6475132940       -2.4022827942       -2.2227464490
 H          2.5067563853       -1.5589882175       -2.9031986197
 H          2.4782775857       -3.3229239478       -2.7852861187
 C          1.5858859705       -2.3025137149       -1.1193022512
 H          0.6157248604       -2.1159284095       -1.5864907751
 H          1.5253464654       -3.2385939734       -0.5640413295
 H          5.2164644553       -2.1271907265        0.7905323683
 H          4.9858839369       -3.7868454199        1.3430041131
 H          3.3950558115       -2.4643405143        2.4854161744
 H          2.4909739980       -3.4058280158        1.2900768033
 O          2.9280108711       -0.2738342346        1.7413794042
 C          2.4733409705        1.0074776182        1.4739802329
 O          2.8243944091        1.8650065340        2.3122332807
 O          0.5777917533        0.3058491474       -1.5266721477
 C          1.1632901313        2.6119970029        0.0761449269
 C         -0.3430245005        2.5738054797       -0.0213206327
 C         -1.0676547944        3.3017031834       -0.9571004243
 C         -2.4474121632        3.2011517602       -1.0091653954
 C         -3.1297366980        2.3596453536       -0.1495772326
 C         -2.4141597815        1.6372322169        0.7981044726
 C         -1.0382872196        1.7730442526        0.8759076705
 H         -0.4982747878        1.2065208945        1.6209651736
 N         -3.0547825850        0.7493680322        1.6884177268
 S         -2.6555732652       -0.8752050504        1.5671876003
 O         -3.4921792186       -1.5376664886        2.5456149680
 O         -1.2342799072       -1.0504353845        1.7189393275
 C         -3.1896446751       -1.3414339969       -0.0706005036
 C         -4.4061884628       -1.9827286872       -0.2093207193
 C         -4.8618854908       -2.2933211975       -1.4799768153
 C         -4.1010814291       -1.9491166539       -2.5873764945
 C         -2.8856597037       -1.3014985390       -2.4306303137
 C         -2.4201636026       -0.9903628288       -1.1616285597
 H         -1.4740446498       -0.4901092730       -1.0211792566
 H         -2.2875050354       -1.0293858226       -3.2855980105
 H         -4.4556084791       -2.1871135482       -3.5778709874
 H         -5.8062959384       -2.7986969207       -1.6024109249
 H         -4.9604102533       -2.2321071002        0.6811944948
 H         -4.0622715691        0.8378194087        1.6934041246
 H         -4.2030452931        2.2590376824       -0.2088283079
 H         -2.9966185162        3.7710054548       -1.7429106777
 H         -0.5503312935        3.9431213969       -1.6517942905
 H          1.4396134287        3.2151645275        0.9538064224
 C          1.8280404388        3.2001794358       -1.1523117705
 C          2.0706489871        4.6755218901       -1.2524398379
 C          3.2199201965        3.7404639092       -1.0288060875
 H          3.9142824220        3.5693259473       -1.8376885457
 H          3.6754459334        3.7095122286       -0.0493305905
 H          1.9803038888        5.1492402231       -2.2183416152
 H          1.7539527169        5.2923510154       -0.4250002844
 H          1.5807470796        2.6568537586       -2.0572037191
