  62
        -98.93708872
 C         -1.8515921601       -1.0863400196       -0.2000529793
 C         -2.3924972401        0.1112017498       -0.7244940207
 C         -3.8541314401        0.2558207999       -0.6211662611
 C         -4.5754881902       -0.7353112294       -0.0664607000
 C         -6.0571269902       -0.7035265591        0.1804693297
 C         -6.3655409603        0.1603415923        1.4201171187
 C         -7.1584758603        1.4326210919        1.1205668172
 H         -8.2025084303        1.1666848618        0.9422263073
 H         -7.1258049104        2.0568438930        2.0160778865
 C         -6.6736530801        2.2544088906       -0.0777043537
 H         -7.1500176101        3.2344347607       -0.0047432649
 H         -7.0338252800        1.8023567595       -1.0030467432
 C         -5.1560528801        2.4519541204       -0.1865672837
 H         -4.9698761900        3.4723896000       -0.5278157648
 H         -4.6832478702        2.3540152415        0.7908908765
 C         -4.4569800400        1.5119794393       -1.1866211326
 H         -5.1505433399        1.2547148284       -1.9921735124
 H         -3.6146614599        2.0459918188       -1.6368585030
 H         -5.4192877804        0.4243585728        1.8969425485
 H         -6.9281577404       -0.4303576469        2.1446002393
 H         -6.5678564501       -0.3120107001       -0.6963872008
 H         -6.3811659002       -1.7315524889        0.3436423108
 O         -4.0171926702       -1.8755925189        0.4172774913
 C         -2.6485056202       -2.0800420890        0.3668387617
 O         -2.2696230903       -3.1640362584        0.8543644430
 H          1.7589163400        0.2229106792       -1.1694377803
 C          1.4351892499        0.4703186203       -0.1729936106
 C          0.3833930798       -0.2075323390        0.4217762900
 C         -0.0061251104        0.1624306025        1.7073384096
 C          0.6246610496        1.1982353332        2.3669728485
 C          1.6696253096        1.8787267825        1.7659154479
 C          2.0733579798        1.5124127811        0.4885509583
 N          3.1220320399        2.1950701103       -0.1480879423
 S          4.3070234000        1.3540374494       -0.9727367412
 O          5.3845890100        2.3063995192       -1.1255264221
 O          3.7759669002        0.7926453780       -2.1876907506
 C          4.7930873198        0.0607824906        0.1545923003
 C          4.2800321798       -1.2110526895        0.0037595917
 C          4.6151762297       -2.1818857585        0.9346376028
 C          5.4517309595       -1.8658781373        1.9936847926
 C          5.9640512196       -0.5841283172        2.1278406212
 C          5.6293824997        0.3914283318        1.2033771501
 H          6.0147733197        1.3962150519        1.2656200590
 H          6.6191403094       -0.3434362063        2.9495579510
 H          5.7073752894       -2.6243473065        2.7166926235
 H          4.2195960997       -3.1797470486        0.8305226939
 H          3.6369847999       -1.4204470605       -0.8348752682
 H          3.5253661798        2.9416750409        0.3986155369
 H          2.1589731596        2.6943759831        2.2761393970
 H          0.3034672894        1.4789663543        3.3587588981
 H         -0.8236214305       -0.3691216470        2.1759515601
 C         -0.3544019801       -1.3327923297       -0.2612253188
 H         -0.1770523502       -2.2562264891        0.3094914923
 C          0.0729741700       -1.5594956514       -1.6961839285
 C          1.2167547201       -2.4747906617       -2.0091067973
 C         -0.1866478999       -2.8925237921       -2.3286474170
 H         -0.4977319398       -2.9208846532       -3.3621539770
 H         -0.6475037600       -3.6510042814       -1.7123243062
 H          1.7031300900       -2.9646310308       -1.1788124067
 H          1.8776525302       -2.2149409727       -2.8231858975
 H         -0.0644485099       -0.6820380721       -2.3182005695
 O         -1.6936114500        1.0152115792       -1.2531002016
