  62
        -98.93530795
 C         -2.3338627604       -1.1416701697       -0.4347848850
 C         -3.6534019520       -1.1040464180        0.0753923766
 C         -4.4926914286        0.0291705022       -0.3493954618
 C         -3.9673190098        0.9571895838       -1.1680034263
 C         -4.6238511146        2.2152990434       -1.6653228757
 C         -4.2875589323        3.4027453651       -0.7470708453
 C         -5.2298055043        3.5843515345        0.4423197964
 H         -4.8074300796        4.3694979211        1.0737049280
 H         -6.1978988444        3.9387000576        0.0820304159
 C         -5.4537490161        2.3340737364        1.2970045863
 H         -4.5026858044        1.8215600290        1.4548342780
 H         -5.8110708461        2.6581819457        2.2764402815
 C         -6.4782859953        1.3637621617        0.6903881414
 H         -7.2273091938        1.1122607002        1.4440855985
 H         -7.0095386734        1.8667638036       -0.1173563871
 C         -5.9008208112        0.0350532205        0.1805586207
 H         -6.5646436440       -0.3695549253       -0.5906547733
 H         -5.8909319230       -0.6936277418        0.9971703708
 H         -3.2630245340        3.2703490413       -0.3886685628
 H         -4.3094671380        4.3204497047       -1.3383994512
 H         -5.6974625889        2.0802071478       -1.7562066561
 H         -4.2077830107        2.4131566352       -2.6552863933
 O         -2.6878512977        0.8893943383       -1.6277982794
 C         -1.8388594311       -0.1466206253       -1.2771512148
 O         -0.7024434872       -0.0666448079       -1.7821529636
 O         -4.1111512748       -1.9799772513        0.8577974988
 C         -1.4254284458       -2.2813043624       -0.0035926600
 C         -0.3266666752       -1.7003721471        0.8513134258
 C         -0.6238967675       -1.3154553495        2.1563103318
 C          0.3331639338       -0.7118987189        2.9491748687
 C          1.6057850891       -0.4750617267        2.4580818011
 C          1.9089920607       -0.8475502316        1.1561250949
 C          0.9484274237       -1.4652723958        0.3641219366
 H          1.1922591002       -1.7346283250       -0.6512097651
 N          3.2018112299       -0.6207747363        0.6434585949
 S          3.9031036486        0.8838826116        0.9590384969
 O          4.4303193351        0.8653977002        2.3014912546
 O          2.9715514145        1.9502884717        0.6645017243
 C          5.2454879241        0.8781075610       -0.2122770611
 C          6.4472222139        0.3004129691        0.1506483026
 C          7.4803442788        0.2689588066       -0.7723852064
 C          7.2952651263        0.8114857929       -2.0353051485
 C          6.0833930420        1.3884585545       -2.3846556974
 C          5.0452257934        1.4218515471       -1.4669132739
 H          4.0885066180        1.8659456971       -1.6934938355
 H          5.9422990287        1.8112170469       -3.3664037236
 H          8.1005936108        0.7870769130       -2.7522991517
 H          8.4246217190       -0.1768383571       -0.5046689511
 H          6.5463638494       -0.1000461117        1.1458650701
 H          3.2421440530       -0.8196874651       -0.3477003639
 H          2.3577523118        0.0090944812        3.0598799386
 H          0.0884327726       -0.4171691400        3.9588757237
 H         -1.6230093454       -1.4835336914        2.5346236114
 H         -2.0482033602       -2.9258492582        0.6313440094
 C         -0.9326803581       -3.0886446059       -1.1852789137
 C         -0.3285814510       -4.4402999502       -0.9522035235
 C         -1.6793482576       -4.3228483509       -1.5899166195
 H         -1.7749005340       -4.5437195702       -2.6424415415
 H         -2.5470266183       -4.5945868957       -1.0069647346
 H          0.5045931032       -4.7464284788       -1.5660826479
 H         -0.2772285300       -4.7917499226        0.0670908085
 H         -0.5231060782       -2.4769605978       -1.9801884737
