  62
        -98.93815606
 C          2.4921993122        0.8493306090        0.7813710230
 C          3.5401346073        0.8697681057       -0.1717449009
 C          4.6119869745       -0.1135856627        0.0391211006
 C          4.5555190399       -0.9640632702        1.0790138738
 C          5.5839824149       -2.0032184006        1.4343895435
 C          5.4353260738       -3.3219162245        0.6631882906
 C          5.8385399088       -3.2632762103       -0.8107272298
 H          6.8372951606       -2.8341078274       -0.8964654436
 H          5.8950357834       -4.2932470049       -1.1685270555
 C          4.8625739802       -2.4839463342       -1.7033893991
 H          3.9076840233       -2.3666797477       -1.1854231804
 H          4.6637023311       -3.0560600848       -2.6124460632
 C          5.3621533570       -1.1056047613       -2.1361298455
 H          6.2430482886       -1.2178538510       -2.7721770466
 H          4.5774578162       -0.6274108429       -2.7278598650
 C          5.7159401404       -0.1692383664       -0.9736417610
 H          6.6469237425       -0.4864633672       -0.5044786983
 H          5.8503524839        0.8383550963       -1.3744740081
 H          4.3993381827       -3.6590340974        0.7440186297
 H          6.0657453559       -4.0623936405        1.1609307653
 H          6.5835653550       -1.5978446629        1.2748233793
 H          5.4590417314       -2.2115016741        2.4991846080
 O          3.5266065356       -0.9591132800        1.9680056192
 C          2.4732650767       -0.0733480115        1.8318248694
 O          1.5897543381       -0.1951173407        2.7055519839
 H         -1.0387330990        0.5830496783        1.2252021172
 C         -0.8759024347        0.6927068800        0.1604531004
 C          0.2933335039        1.2930985867       -0.2848432052
 C          0.5023269857        1.4087467532       -1.6546290017
 C         -0.4424568427        0.9355066286       -2.5472749111
 C         -1.6086322340        0.3392312294       -2.0997348884
 C         -1.8244791765        0.2145856888       -0.7340163079
 N         -3.0034595217       -0.4090356930       -0.2628735328
 S         -4.4590170942        0.3454059468       -0.6811104368
 O         -4.6117382046        0.2894554644       -2.1117310902
 O         -4.5261722185        1.6637415036       -0.0861183583
 C         -5.6368458164       -0.7412412669        0.0967178931
 C         -6.2857472560       -0.3385148715        1.2476358336
 C         -7.1897815138       -1.2033663655        1.8446872253
 C         -7.4246344062       -2.4499011119        1.2849705054
 C         -6.7634082387       -2.8405130848        0.1296831169
 C         -5.8599924795       -1.9801928381       -0.4730506585
 H         -5.3297742104       -2.2380800215       -1.3747160200
 H         -6.9499321907       -3.8105015483       -0.3022562172
 H         -8.1291596556       -3.1205484975        1.7510472626
 H         -7.7064289213       -0.9017678476        2.7416778848
 H         -6.0766759924        0.6423377346        1.6438189233
 H         -2.9792775841       -0.5065270760        0.7449509078
 H         -2.3558617590       -0.0168850234       -2.7895364154
 H         -0.2685698599        1.0303126007       -3.6087472946
 H          1.4187234084        1.8520862973       -2.0115645460
 C          1.3009989630        1.7934385884        0.7229303808
 H          0.8321480821        1.7366163711        1.7147885035
 C          1.6891675571        3.2354810266        0.4639926754
 C          0.6961158277        4.3142208466        0.7714135007
 C          1.9163202617        4.1519235971        1.6264818074
 H          2.6999969277        4.8908915321        1.5538374031
 H          1.7930673218        3.7428699193        2.6190035229
 H         -0.2572992474        4.0147443409        1.1813294370
 H          0.6393573065        5.1654786348        0.1105586313
 H          2.3242920889        3.3666043986       -0.4012576207
 O          3.6064473942        1.6605303574       -1.1485206844
