  62
        -98.93563047
 C          2.1100645515        0.8936562088        0.3107917971
 C          2.9590103910        0.2876329261        1.2688240025
 C          3.7575773611       -0.8641013901        0.8156586446
 C          3.5948253627       -1.3136168090       -0.4404435217
 C          4.3440449292       -2.4267756571       -1.1189362930
 C          5.5550088098       -1.8733647667       -1.8895692502
 C          6.8357875846       -1.7369424309       -1.0669148151
 H          7.2327306885       -2.7318105232       -0.8544801406
 H          7.5676327650       -1.2183580988       -1.6904028317
 C          6.6893305436       -0.9769665145        0.2540194259
 H          6.0674992136       -0.0926756982        0.1026649066
 H          7.6801412487       -0.6275872930        0.5505479410
 C          6.1078039847       -1.8381612982        1.3850868062
 H          6.1265026782       -2.8845937933        1.0809923059
 H          6.7493412335       -1.7600416250        2.2652021201
 C          4.6897566868       -1.4578003133        1.8366381536
 H          4.2082764421       -2.3367143172        2.2787596890
 H          4.7489713955       -0.7047035361        2.6287432217
 H          5.2741107257       -0.8996643011       -2.2995111063
 H          5.7639361144       -2.5338946690       -2.7334968074
 H          4.6464850748       -3.1830320427       -0.4004654698
 H          3.6515704509       -2.8769943358       -1.8335351122
 O          2.7145918386       -0.7473283051       -1.3100679696
 C          1.9530769778        0.3617129558       -0.9701239247
 O          1.1984621146        0.7523578201       -1.8791424441
 H         -0.2631902830        0.0889586600        1.4798503211
 C         -0.8078555124        0.7835962967        0.8506853182
 C         -0.1516734405        1.9088721423        0.3658302106
 C         -0.8550854312        2.7835594521       -0.4505036477
 C         -2.1770622213        2.5290486844       -0.7724908463
 C         -2.8254449444        1.4086409921       -0.2874731304
 C         -2.1293287083        0.5232306665        0.5253023192
 N         -2.7800924152       -0.6154953131        1.0333181212
 S         -3.6349392817       -1.5903815882       -0.0346325070
 O         -3.6598068557       -2.8949398130        0.5923464803
 O         -3.0923144612       -1.5302798559       -1.3717931451
 C         -5.2783094118       -0.9048503410       -0.0050063036
 C         -5.9145446182       -0.7915050505        1.2157038498
 C         -7.1951234603       -0.2637755170        1.2560654537
 C         -7.8155675035        0.1362260907        0.0817811524
 C         -7.1651587249        0.0116303462       -1.1362712917
 C         -5.8833088678       -0.5144385108       -1.1834961094
 H         -5.3358045941       -0.6249638946       -2.1062061992
 H         -7.6490170896        0.3220749928       -2.0484207862
 H         -8.8121474198        0.5472403257        0.1159921770
 H         -7.7042686739       -0.1658136095        2.2012734554
 H         -5.3986253043       -1.1177079516        2.1032147549
 H         -2.1947518743       -1.1806027192        1.6317046774
 H         -3.8524512175        1.2049234879       -0.5427121026
 H         -2.7099614551        3.2132788472       -1.4150446305
 H         -0.3616716380        3.6504971742       -0.8575519228
 C          1.2941202373        2.0957943907        0.7524078221
 H          1.3524326927        2.0708425624        1.8538426467
 C          1.8695624387        3.4368598662        0.3231815138
 C          3.3382979408        3.6020218103        0.0746931815
 C          2.3711852724        3.6911580841       -1.0655767002
 H          2.1889170181        4.6608167993       -1.5055798433
 H          2.3247893932        2.8765639514       -1.7710008725
 H          3.8188164740        4.5061354235        0.4171778490
 H          3.9605364731        2.7218430773        0.1496157130
 H          1.3727346599        4.2650679505        0.8190794284
 O          3.0483934674        0.6936817082        2.4592938248
