  62
        -98.93340950
 C         -1.9316080681       -0.9449870770        0.2869435379
 C         -1.5802733166        0.2666645372        0.9291679613
 C         -1.8398673578        1.5103171973        0.1886200691
 C         -2.3399732336        1.4331039543       -1.0566533803
 C         -2.7287093838        2.5758221669       -1.9523181327
 C         -4.2226987277        2.9047639389       -1.7886600869
 C         -4.5468804667        3.8882029781       -0.6644615808
 H         -4.2050359874        4.8847405298       -0.9516652522
 H         -5.6347602866        3.9287507034       -0.5740459020
 C         -3.9529528140        3.5430669340        0.7039613245
 H         -4.5365668079        4.0686256163        1.4622465703
 H         -4.0635721262        2.4740811339        0.8944507947
 C         -2.4789054981        3.9511267457        0.8436505073
 H         -2.3495873025        4.5191719000        1.7669794849
 H         -2.2196084922        4.6241475302        0.0264895961
 C         -1.4727194915        2.7894929067        0.8908901375
 H         -0.5111144673        3.1359889366        0.4970311419
 H         -1.3037571028        2.4954531331        1.9314629061
 H         -4.7554631268        1.9648902036       -1.6224225853
 H         -4.5922597693        3.3276544931       -2.7249690986
 H         -2.5529815903        2.2428394602       -2.9773870219
 H         -2.1099624723        3.4467269538       -1.7563944383
 O         -2.6165562875        0.2470357048       -1.6605585056
 C         -2.3958096550       -0.9659786914       -1.0291579089
 O         -2.6579671630       -1.9571380225       -1.7354044175
 O         -1.0651019200        0.3101780535        2.0808565251
 C         -1.6182891581       -2.2500386600        1.0080892923
 C         -0.3122417590       -2.7225309677        0.4183628138
 C         -0.2035071446       -3.7250095369       -0.5359791623
 C          1.0117424105       -3.9719807849       -1.1542436252
 C          2.1332703924       -3.2237767583       -0.8437742262
 C          2.0356282155       -2.2372944188        0.1274332269
 C          0.8285413207       -2.0060094940        0.7608171024
 H          0.7489409047       -1.2178667195        1.4987551601
 N          3.1636858878       -1.4277139625        0.4102543282
 S          3.4648757618       -0.3067985483       -0.8293844663
 O          2.2938193996       -0.1806616760       -1.6676240901
 O          4.6771921205       -0.7047354984       -1.5045737849
 C          3.7385022967        1.2091437980        0.0702358310
 C          2.6355784906        1.8367073414        0.6197226254
 C          2.8210972794        3.0021023531        1.3457895590
 C          4.0991231542        3.5164530391        1.5099698857
 C          5.1949081049        2.8750151419        0.9528528427
 C          5.0169112976        1.7077947785        0.2261560684
 H          5.8359038067        1.1737368846       -0.2268212773
 H          6.1858743186        3.2789335640        1.0826454080
 H          4.2382065733        4.4236063011        2.0763763733
 H          1.9681055021        3.4972409755        1.7822362815
 H          1.6551224294        1.4086269649        0.4680242232
 H          3.0359393536       -0.9222963654        1.2781355790
 H          3.0736795574       -3.3710442702       -1.3518718134
 H          1.0787258012       -4.7435250639       -1.9067073048
 H         -1.0776082806       -4.2864718390       -0.8231759065
 H         -1.4382349191       -1.9715315618        2.0554561890
 C         -2.7397700481       -3.2607237114        0.9569152362
 C         -2.7085093485       -4.4274363520        1.8974480122
 C         -3.7113577162       -3.3322229317        2.0955919938
 H         -4.7482667100       -3.5346527886        1.8736009633
 H         -3.5669818985       -2.6509418015        2.9213580866
 H         -3.0558305471       -5.3851255112        1.5416534309
 H         -1.8803095283       -4.4881905992        2.5872191444
 H         -3.1316005418       -3.4204299169       -0.0392842889
