  62
        -98.94365658
 C          1.8011683877        0.3689304635       -0.2969371769
 C          2.9721824408        0.7105056009       -1.0136861876
 C          4.2300169822        0.6428429442       -0.2580920038
 C          4.1977868176        0.2945220998        1.0415070036
 C          5.4073130404        0.1408711479        1.9166925594
 C          5.9336190005       -1.3009144874        1.8894901587
 C          6.1009007111       -1.8705151981        0.4808021337
 H          6.5050859079       -2.8798634127        0.5838860776
 H          5.1172700064       -1.9640802510        0.0150779781
 C          7.0165331081       -1.0443831225       -0.4332656812
 H          7.6348550263       -0.3761237505        0.1671890676
 H          7.6905478420       -1.7231717878       -0.9601181631
 C          6.2809304704       -0.2312005331       -1.5000556493
 H          7.0197521661        0.1353226652       -2.2178301072
 H          5.5906510681       -0.8804863855       -2.0445268166
 C          5.4974251714        0.9848982344       -0.9899001473
 H          5.1909051022        1.5714611242       -1.8611275446
 H          6.1462433951        1.6065108004       -0.3693510124
 H          6.8919199394       -1.3283203094        2.4113562151
 H          5.2311765259       -1.9358045462        2.4342021696
 H          5.1256734380        0.3963620467        2.9395809600
 H          6.1819197195        0.8278209467        1.5813528931
 O          3.0503697773       -0.0056147564        1.7015805982
 C          1.8246080917        0.0140073560        1.0519903667
 O          0.8561772551       -0.2944947709        1.7705853422
 O          2.9646283442        1.0614563127       -2.2249697895
 C          0.4640272986        0.4023883795       -1.0133636842
 C         -0.4790135262        1.3594996102       -0.3276017431
 C         -0.0158163882        2.6223636441        0.0343325094
 C         -0.8463108118        3.5244995494        0.6687787843
 C         -2.1621557585        3.1940809830        0.9426536330
 C         -2.6393120732        1.9429518264        0.5741431642
 C         -1.7985168353        1.0348401174       -0.0562365448
 H         -2.1883309037        0.0709322980       -0.3360516742
 N         -3.9606461457        1.5717108955        0.8553501071
 S         -4.8262675179        0.6128441832       -0.2026563949
 O         -4.4988218860        0.9031258801       -1.5790590162
 O         -6.2092976485        0.8178626728        0.1733200686
 C         -4.3632471985       -1.0583423773        0.2007024226
 C         -4.1364653359       -1.3970997927        1.5196905973
 C         -3.8119685196       -2.7088169920        1.8266292898
 C         -3.7279126657       -3.6561478299        0.8176611635
 C         -3.9659957350       -3.3017204479       -0.5011164991
 C         -4.2875231193       -1.9905402484       -0.8152709440
 H         -4.4698666543       -1.6682678910       -1.8283383834
 H         -3.9002496508       -4.0402022866       -1.2845110391
 H         -3.4735963555       -4.6759623728        1.0601975402
 H         -3.6225037938       -2.9869980013        2.8509226408
 H         -4.2037497757       -0.6367770335        2.2796175695
 H         -4.5317312453        2.2880823464        1.2784854883
 H         -2.8124167718        3.8974816188        1.4401458567
 H         -0.4693977597        4.4966896108        0.9492908491
 H          1.0106717966        2.8846000151       -0.1836854705
 H          0.6787454396        0.7991103933       -2.0174335352
 C         -0.0890531558       -1.0005684890       -1.1533296173
 C         -0.9776166140       -1.3548916021       -2.3067757536
 C          0.4270853941       -1.8737748934       -2.2561750978
 H          0.5828151288       -2.9227409384       -2.0542234972
 H          1.1572576589       -1.4444771400       -2.9267956201
 H         -1.7861324052       -2.0491631031       -2.1354822112
 H         -1.2113251262       -0.5759748894       -3.0170850445
 H         -0.2852435530       -1.4672733721       -0.1941333385
