  62
        -98.93831344
 C          2.2550942898        0.9979898591        0.3814914310
 C          2.4838359598        0.1113802692       -0.6959889090
 C          3.3390186896       -1.0571894009       -0.4145674090
 C          3.8307829094       -1.2351722111        0.8257225710
 C          4.6870317191       -2.3396219913        1.4101561210
 C          5.4151652991       -3.3272622413        0.5020427910
 C          6.5388107793       -2.7173409214       -0.3351249688
 H          7.3532259693       -2.4287777816        0.3341897114
 H          6.9194566893       -3.4883536314       -1.0085298188
 C          6.1572709196       -1.4866508112       -1.1539700487
 H          7.0474361498       -1.1583081113       -1.6973469885
 H          5.8728204797       -0.6731917713       -0.4833203886
 C          5.0421885598       -1.7008601710       -2.1756698589
 H          4.9857667600       -0.8009914909       -2.7938489288
 H          5.2968862197       -2.5386777309       -2.8274979889
 C          3.6417001996       -1.9452901108       -1.5869027191
 H          2.9036618898       -1.6965443106       -2.3551099792
 H          3.4991108695       -2.9908020108       -1.3243111292
 H          4.7055961092       -3.8480285511       -0.1339809692
 H          5.8632948789       -4.0790208115        1.1575457010
 H          5.4182063491       -1.8392078015        2.0531287012
 H          4.0276042590       -2.9050541913        2.0781897409
 O          3.5462263994       -0.3696877112        1.8448933611
 C          2.7671084795        0.7573910889        1.6536434311
 O          2.5996620995        1.4483676888        2.6804891411
 H         -0.1205540605        0.3594749494        1.2768292606
 C         -0.6372112703        0.8365420496        0.4518288306
 C          0.0089418200        1.8439877495       -0.2545060092
 C         -0.6711899298        2.4607420898       -1.2958673392
 C         -1.9528699098        2.0582707900       -1.6306253495
 C         -2.5832374800        1.0415067400       -0.9380859597
 C         -1.9189072303        0.4285893798        0.1166340703
 N         -2.5472491405       -0.6116879402        0.8238032901
 S         -4.1040040106       -0.3560237601        1.4001648299
 O         -4.3462292504        1.0431220799        1.6658707001
 O         -4.2435718609       -1.2578490402        2.5228509798
 C         -5.1476522105       -0.9175474798        0.0715987697
 C         -4.9916114806       -2.2163904797       -0.3712086304
 C         -5.7967937705       -2.6728833395       -1.4023710806
 C         -6.7405207503       -1.8284608393       -1.9682735206
 C         -6.8874710802       -0.5283264393       -1.5097336805
 C         -6.0847692103       -0.0651949396       -0.4786643603
 H         -6.1598053802        0.9390259104       -0.0928461702
 H         -7.6221371500        0.1260641008       -1.9505931205
 H         -7.3652989902       -2.1864087791       -2.7712666608
 H         -5.6853952006       -3.6834058795       -1.7612280407
 H         -4.2489768907       -2.8404190499        0.0975702196
 H         -1.9668107807       -1.0212572704        1.5412828202
 H         -3.5778141300        0.7209764602       -1.2011994899
 H         -2.4667727996        2.5415828201       -2.4474047995
 H         -0.1966655796        3.2539455598       -1.8494821191
 C          1.4020814600        2.2362859293        0.1772717210
 H          1.3247437499        2.7175601392        1.1639626311
 C          2.0875972603        3.1906517693       -0.7783229087
 C          1.8668843104        4.6678635393       -0.6605995186
 C          3.1811000203        4.0718604091       -0.2567818385
 H          4.0438252304        4.2487636090       -0.8813389983
 H          3.4123129701        4.0037365289        0.7967427115
 H          1.2073825004        5.0146675993        0.1207289313
 H          1.8305225607        5.2581301094       -1.5637595885
 H          2.2159641103        2.7666295794       -1.7673663388
 O          1.9937889200        0.2781639594       -1.8423038491
