  62
        -98.94338846
 C          1.9494108349        0.8564291892        0.0465709072
 C          2.2386089117       -0.1179012408        1.0296704291
 C          2.5800775953       -1.4553902292        0.5300671553
 C          2.5570553909       -1.6867382636       -0.7954073676
 C          2.9275123254       -2.9883671370       -1.4445934649
 C          4.4211443907       -3.0297166262       -1.7975659439
 C          5.3393123465       -2.6199604296       -0.6461517978
 H          6.3678498117       -2.7148908288       -1.0005560786
 H          5.1731715553       -1.5649014700       -0.4171079428
 C          5.1606501978       -3.4490750583        0.6332279674
 H          4.6400331103       -4.3790819920        0.4025566849
 H          6.1467586602       -3.7154443934        1.0191964618
 C          4.4231302796       -2.7237194900        1.7602663253
 H          4.5405840938       -3.3085394370        2.6764365473
 H          4.8850674112       -1.7483921996        1.9328734912
 C          2.9190441349       -2.5107880661        1.5450601633
 H          2.4436307856       -3.4594408399        1.2859469161
 H          2.4915492187       -2.1629773719        2.4905154418
 H          4.5967620111       -2.3498953752       -2.6343161690
 H          4.6704496664       -4.0414696290       -2.1223100171
 H          2.6775295759       -3.8061138570       -0.7713313512
 H          2.3414915380       -3.0927100622       -2.3592447487
 O          2.2388315435       -0.7348862048       -1.7093380938
 C          1.9278264607        0.5576613791       -1.3154013992
 O          1.6602835067        1.3310519609       -2.2550709442
 H         -0.5481204930        0.6585415134        0.2850437798
 C         -0.7840078228        1.6695975430       -0.0157545505
 C          0.2075417247        2.6419931771        0.0072750739
 C         -0.1246107690        3.9359832163       -0.3748537922
 C         -1.4141966818        4.2384574847       -0.7765074171
 C         -2.3954128313        3.2657910740       -0.8042298509
 C         -2.0722179927        1.9654146281       -0.4289031243
 N         -3.0360771466        0.9470437350       -0.4980212089
 S         -2.8660693140       -0.4572655064        0.4111777492
 O         -2.6450636796       -0.1345620615        1.8040638556
 O         -1.8847473889       -1.3083744758       -0.2158156693
 C         -4.4939341835       -1.1524597496        0.1969532810
 C         -5.4409128645       -0.9876012245        1.1899786087
 C         -6.7125170028       -1.5045229920        0.9965811506
 C         -7.0148571390       -2.1706333501       -0.1814763180
 C         -6.0536270101       -2.3291887087       -1.1689786455
 C         -4.7801360160       -1.8158582644       -0.9813690471
 H         -3.9977639139       -1.9207385439       -1.7151692095
 H         -6.2910194150       -2.8501526379       -2.0824596642
 H         -8.0049179884       -2.5716127952       -0.3301800463
 H         -7.4605460579       -1.3855851418        1.7636740671
 H         -5.1566802146       -0.4690015555        2.0914308467
 H         -3.9864906771        1.2892971820       -0.5080263055
 H         -3.3988992814        3.5019613096       -1.1230554484
 H         -1.6582941315        5.2478904098       -1.0708412176
 H          0.6276913528        4.7075125807       -0.3595473404
 C          1.5883848689        2.2617777526        0.4852612882
 H          1.5660121242        2.2276173823        1.5861460090
 C          2.6613303241        3.2401819005        0.0497635637
 C          2.9965135605        4.4320039430        0.8945908088
 C          3.9514922902        3.2807497747        0.8110280045
 H          4.8718505096        3.4081081870        0.2612566998
 H          4.0399036008        2.6251167124        1.6653431412
 H          3.2650874231        5.3539613320        0.4011820982
 H          2.4460812865        4.5644096753        1.8138648274
 H          2.7120447980        3.3423632373       -1.0286145387
 O          2.2151509746        0.1222378041        2.2691844332
