  62
        -98.94178635
 C          1.2170091219        1.0468119442        0.7506435653
 C          1.4735983238        0.5199852006       -0.5406694882
 C          2.3412376300       -0.6684563496       -0.5764839930
 C          2.6993592814       -1.2756971405        0.5673575377
 C          3.5500734619       -2.5105207082        0.6895557593
 C          5.0582796370       -2.2258526928        0.6786449468
 C          5.6300686464       -1.8220585804       -0.6809721367
 H          6.7178738395       -1.8609255526       -0.5956011903
 H          5.3367989441       -2.5579220706       -1.4304414750
 C          5.2217984553       -0.4179103923       -1.1482262294
 H          6.1008268024        0.1104291429       -1.5242706157
 H          4.8466195539        0.1550830172       -0.2970056800
 C          4.1733622097       -0.3990913723       -2.2607944146
 H          3.9412872545        0.6438280823       -2.4925791018
 H          4.5883878357       -0.8566534838       -3.1615678147
 C          2.8601343497       -1.1132085502       -1.9107101471
 H          2.1181834668       -0.8437987531       -2.6663262172
 H          3.0048992846       -2.1931256561       -1.9278110948
 H          5.2728621580       -1.4442513768        1.4112875506
 H          5.5657833368       -3.1359584390        1.0066750713
 H          3.3096320397       -3.2077049152       -0.1135935824
 H          3.2936431221       -2.9732717864        1.6449319157
 O          2.2915017254       -0.8296866114        1.7854624159
 C          1.5884427870        0.3563011398        1.9079741314
 O          1.3370198261        0.6777830487        3.0877309163
 O          1.0281611486        1.0008308500       -1.6114890717
 C          0.4451292171        2.3388644767        0.9640661338
 C         -0.8766913257        2.2623204282        0.2446348591
 C         -1.1320733724        2.9089364330       -0.9569196817
 C         -2.3530634252        2.7513160737       -1.5899188543
 C         -3.3460209479        1.9643533538       -1.0334554830
 C         -3.1022356186        1.3233798930        0.1736009522
 C         -1.8733863665        1.4684208094        0.7984910801
 H         -1.6773340767        0.9538893548        1.7317818522
 N         -4.1151845530        0.5199098920        0.7501395465
 S         -4.4300444379       -0.9182755490       -0.0467047530
 O         -4.9123633917       -0.6207747281       -1.3698991260
 O         -5.3256164795       -1.6556382369        0.8148144104
 C         -2.8487391519       -1.7377715306       -0.1318383800
 C         -2.4858770842       -2.5924284652        0.8899932840
 C         -1.2295582353       -3.1755016560        0.8615627458
 C         -0.3606756855       -2.8884498240       -0.1798236802
 C         -0.7386725957       -2.0246652688       -1.1957234785
 C         -1.9927411225       -1.4372028852       -1.1718744704
 H         -2.3152199337       -0.7567910226       -1.9431325802
 H         -0.0584017727       -1.7937452742       -1.9988237944
 H          0.6194840723       -3.3379691554       -0.1991435064
 H         -0.9291569069       -3.8462722582        1.6506361184
 H         -3.1949522641       -2.7942004365        1.6771702338
 H         -3.9447957326        0.3161350141        1.7257055180
 H         -4.2966533618        1.8209958948       -1.5209271532
 H         -2.5346786676        3.2482379571       -2.5308098697
 H         -0.3612292004        3.5110406333       -1.4091460390
 H          0.2343893889        2.3629258547        2.0453029467
 C          1.2265880552        3.6066956324        0.6533862813
 C          2.6750605652        3.7093499757        1.0273334420
 C          2.2717284032        3.7014350991       -0.4148564622
 H          2.3450014013        4.6253470400       -0.9700116116
 H          2.4790317083        2.8236967184       -1.0043913424
 H          3.0349204856        4.6300209020        1.4612449410
 H          3.1442530112        2.8231959411        1.4309958849
 H          0.6233026901        4.4945055158        0.8181733509
