  62
        -98.93442581
 C         -2.4473130900       -1.4839421599        0.2635255703
 C         -2.7392874100       -0.6041977700       -0.8037650398
 C         -3.6801782500        0.5026730301       -0.5207372398
 C         -4.1832233000        0.6338101202        0.7198802802
 C         -5.1143302000        1.6919928702        1.2500317101
 C         -4.4086009900        3.0336303602        1.5004445500
 C         -3.4734039700        3.4848767901        0.3817562099
 H         -2.7010532600        2.7274645901        0.2315659100
 H         -2.9673888800        4.3940165702        0.7179963199
 C         -4.1537804800        3.7933524700       -0.9501538501
 H         -3.3883262901        4.2006261500       -1.6160158301
 H         -4.9060464700        4.5700355300       -0.7958774601
 C         -4.8143104600        2.6071135200       -1.6568772700
 H         -5.0163600301        2.9151401499       -2.6868824000
 H         -5.7765784900        2.3686292200       -1.2120681499
 C         -3.9478890600        1.3545665000       -1.7388148199
 H         -2.9652410200        1.6261809199       -2.1421196299
 H         -4.3847265800        0.6756769299       -2.4812010298
 H         -3.8135552400        2.9388417303        2.4122347600
 H         -5.1696667700        3.7968559202        1.6715198799
 H         -5.9586556400        1.8189660401        0.5791159101
 H         -5.4984327300        1.3194663002        2.2022487601
 O         -3.8532195600       -0.2246823998        1.7272064302
 C         -2.9959111500       -1.2866727698        1.5336553903
 O         -2.8052194099       -1.9851485997        2.5495112303
 H         -0.1492180500       -0.7832359000       -1.2004973698
 C          0.4566194200       -1.2387316499       -0.4305024298
 C         -0.0878668600       -2.2528850698        0.3461923203
 C          0.6988795800       -2.8258701098        1.3376238403
 C          1.9978232000       -2.3928153897        1.5420731303
 C          2.5372114600       -1.3844443998        0.7634880002
 C          1.7564962000       -0.8016057699       -0.2263634098
 N          2.2937709800        0.2256558501       -1.0257746299
 S          2.9290039400        1.5599651601       -0.2255689300
 O          2.2956153500        1.7572877802        1.0586437200
 O          2.8314337900        2.6541054801       -1.1670028001
 C          4.6441098200        1.1352422402       -0.0061334900
 C          5.3794072600        0.8054677801       -1.1280186400
 C          6.7162661100        0.4736166501       -0.9777194600
 C          7.2926299800        0.4798787202        0.2839713400
 C          6.5418034000        0.8168243903        1.3997767000
 C          5.2033410600        1.1487560003        1.2565035000
 H          4.5782516900        1.4107411203        2.0953959000
 H          6.9913809800        0.8214181304        2.3797429900
 H          8.3332054700        0.2202946002        0.3983912100
 H          7.3032430600        0.2106965101       -1.8429280700
 H          4.8935350500        0.8157416800       -2.0893673100
 H          1.6620105900        0.5250332900       -1.7557350399
 H          3.5465446700       -1.0407217698        0.9210522602
 H          2.5968035201       -2.8443562997        2.3180681603
 H          0.2789130901       -3.6008544497        1.9620765104
 C         -1.5171716400       -2.6814498499        0.1358653404
 H         -1.7912237500       -3.3414561698        0.9736684104
 C         -1.7346967600       -3.4674612000       -1.1509888196
 C         -0.7079682100       -3.6022418200       -2.2317293496
 C         -1.0218075900       -4.7723130300       -1.3520919795
 H         -1.5701495500       -5.6048515700       -1.7658998194
 H         -0.2854289800       -5.0499877299       -0.6128448795
 H          0.2427697200       -3.1098792100       -2.1023454296
 H         -1.0588610900       -3.6078622501       -3.2525349196
 H         -2.7684037500       -3.4249168600       -1.4785442196
 O         -2.2471109100       -0.7071844200       -1.9588917098
