  62
        -98.94363941
 C          1.1183144267        1.4923875940        0.1630879428
 C          1.6031425919        0.4924490226        1.0450621556
 C          2.4754948886       -0.5307192117        0.4596518919
 C          2.7347420157       -0.5037637245       -0.8599970695
 C          3.5566504934       -1.5085191700       -1.6212186816
 C          5.0681075688       -1.2450752464       -1.5798870682
 C          5.7415137260       -1.5401409011       -0.2390047785
 H          5.4816751805       -2.5496980550        0.0807526674
 H          6.8194665764       -1.5195159006       -0.4109043948
 C          5.3985381411       -0.5398354515        0.8736199093
 H          4.9747441355        0.3644401568        0.4306362529
 H          6.3134289719       -0.2439045143        1.3917207942
 C          4.4315060248       -1.0737198370        1.9300744970
 H          4.2341119917       -0.2735024245        2.6477176555
 H          4.8982607560       -1.9017650417        2.4678212617
 C          3.0842109596       -1.5521837480        1.3724931828
 H          3.2057987411       -2.5020536328        0.8520003399
 H          2.4014001539       -1.6983169946        2.2123407276
 H          5.5292947055       -1.8771256402       -2.3423751043
 H          5.2482600285       -0.2041211629       -1.8585881403
 H          3.3487050346       -2.5104190054       -1.2435578051
 H          3.2223531087       -1.4556371541       -2.6600265122
 O          2.2443329179        0.4616634057       -1.6781653160
 C          1.4294897538        1.4841304221       -1.1987589662
 O          1.0841979270        2.2933791817       -2.0781464101
 O          1.3122073568        0.4558024840        2.2708489602
 C          0.1798866190        2.5198393603        0.7714272889
 C         -1.2301392412        1.9820546005        0.8001831755
 C         -2.0491848743        2.1735573643        1.9072025421
 C         -3.3364222446        1.6667397456        1.9275093455
 C         -3.8180186651        0.9287752092        0.8610387620
 C         -3.0020767676        0.7187653283       -0.2439728087
 C         -1.7278513453        1.2652056885       -0.2786344091
 H         -1.1149168646        1.1046260717       -1.1527479168
 N         -3.4288405723       -0.0744629392       -1.3292447148
 S         -2.4763304176       -1.4114762949       -1.6798382054
 O         -1.2291580604       -1.0018540768       -2.2705917607
 O         -3.3217375410       -2.2617541752       -2.4901167244
 C         -2.2035437345       -2.1545597227       -0.0827285807
 C         -1.1045261758       -1.7666517965        0.6557060875
 C         -0.9623803119       -2.2421169529        1.9492861272
 C         -1.9118357313       -3.1043884288        2.4750517029
 C         -3.0028785587       -3.4991077296        1.7146721684
 C         -3.1594073959       -3.0119182833        0.4272787042
 H         -3.9940959670       -3.2880504665       -0.1967000238
 H         -3.7353516576       -4.1752599966        2.1252165019
 H         -1.7984536527       -3.4693700788        3.4835789445
 H         -0.1188986302       -1.9117450394        2.5351058893
 H         -0.3779072993       -1.0993572813        0.2185555740
 H         -4.3966256759       -0.3604586656       -1.2655909935
 H         -4.8131654890        0.5114925145        0.8834979808
 H         -3.9639963235        1.8292314401        2.7900489117
 H         -1.6647647014        2.7102548241        2.7617449518
 H          0.5073506801        2.6244267354        1.8187598859
 C          0.2662986102        3.8953838767        0.1279800344
 C         -0.7737634755        4.4243700801       -0.8085808509
 C         -0.6480900576        5.0004051838        0.5680354512
 H         -0.2385164278        5.9931084017        0.6767831492
 H         -1.4217691813        4.7587615157        1.2803861478
 H         -0.4370859115        5.0024871735       -1.6553277033
 H         -1.6233033901        3.7960924305       -1.0284725826
 H          1.2919595395        4.1721929991       -0.0931734616
