  62
        -98.93930395
 C         -0.2180641088       -1.7570521731        0.5353463565
 C         -0.9170082343       -1.4854495826       -0.6621398029
 C         -2.2092501889       -0.7859794579       -0.5271681573
 C         -2.6473924175       -0.4550817551        0.7005511205
 C         -3.9430320644        0.2081218145        1.0942848691
 C         -5.2110270000       -0.2900687067        0.3834662545
 C         -5.7964257455        0.7298250133       -0.5946910138
 H         -5.7162404496        1.7234627679       -0.1496100456
 H         -6.8599267082        0.5176144602       -0.7253047552
 C         -5.1550017882        0.7421777331       -1.9812901434
 H         -5.5543827221        1.6033004546       -2.5220058325
 H         -5.4608517558       -0.1528994658       -2.5273575991
 C         -3.6267372207        0.8177545252       -1.9985116176
 H         -3.2649098844        1.5135767838       -1.2437080008
 H         -3.3249195083        1.2139393834       -2.9700736462
 C         -2.9404803478       -0.5437781245       -1.8191789781
 H         -2.1777425434       -0.6766646408       -2.5929083720
 H         -3.6631104500       -1.3509345079       -1.9722039968
 H         -5.9633086783       -0.4943536806        1.1471848396
 H         -5.0067314265       -1.2305240884       -0.1257069876
 H         -3.8429592825        1.2856195033        0.9532206367
 H         -4.0314557821        0.0389958156        2.1698760624
 O         -1.9095265168       -0.6906810991        1.8252090772
 C         -0.6892298346       -1.3366601015        1.7765317874
 O         -0.1320781583       -1.4760538284        2.8855573198
 O         -0.4888510469       -1.8191831653       -1.7981735766
 C          1.0967575197       -2.5108691274        0.4854927830
 C          2.0837146370       -1.8017056576       -0.4095850847
 C          2.9205081563       -2.4664528796       -1.2967190434
 C          3.8198093206       -1.7570433224       -2.0736625052
 C          3.9156053994       -0.3819324953       -1.9714418522
 C          3.0867352224        0.2926118075       -1.0811004852
 C          2.1793372074       -0.4192042698       -0.3146509993
 H          1.5377977035        0.1064921431        0.3775602239
 N          3.1420591026        1.6876439229       -0.9682729490
 S          2.7638227182        2.4634063987        0.4587642581
 O          3.3760357698        3.7687550478        0.3224720832
 O          3.1654435250        1.6972049677        1.6150098003
 C          0.9975721959        2.6752500577        0.4135514780
 C          0.4484143380        3.3033287860       -0.6870075444
 C         -0.9123196074        3.5594289860       -0.7026797887
 C         -1.6952138620        3.1932948660        0.3817003466
 C         -1.1327656521        2.5510026092        1.4734777039
 C          0.2277442955        2.2872595114        1.4910336126
 H          0.6989742165        1.7839799791        2.3221278085
 H         -1.7391782728        2.2514803199        2.3138203489
 H         -2.7498253179        3.4225060989        0.3799660147
 H         -1.3580135223        4.0491775369       -1.5534193743
 H          1.0934575756        3.5886710495       -1.5010826658
 H          3.8893310298        2.1383436230       -1.4747970406
 H          4.6199369246        0.1694227371       -2.5753461561
 H          4.4602207288       -2.2840717738       -2.7645937298
 H          2.8663425532       -3.5391591501       -1.3838656659
 H          1.4993816772       -2.4912436475        1.5099077307
 C          0.8484908773       -3.9516466248        0.0856725269
 C          1.7265415091       -5.0478605896        0.6073986469
 C          0.3238585251       -4.9055197832        1.1148873306
 H         -0.4122541647       -5.6361884593        0.8149989923
 H          0.1756400298       -4.5214310380        2.1140942341
 H          1.9522342989       -5.8815641833       -0.0404198724
 H          2.5335761720       -4.7706703158        1.2689436740
 H          0.4600027276       -4.0397688439       -0.9225099098
