  62
        -98.94528064
 C          1.7318149540        0.5315260869        0.8413513517
 C          2.0775621108       -0.0166564390       -0.4195855273
 C          2.1758076215       -1.4845848256       -0.4768299993
 C          1.8821284147       -2.2130849911        0.6137694905
 C          1.9296129037       -3.7116077594        0.6919881685
 C          0.5760867294       -4.3489921967        0.3524529066
 C         -0.0460404781       -3.8383368775       -0.9473228645
 H         -0.3367828044       -2.7912911932       -0.8358448413
 H         -0.9666020987       -4.4037486115       -1.1125303669
 C          0.8575456085       -3.9617845917       -2.1815197045
 H          0.2591786321       -4.3404423398       -3.0129572287
 H          1.6523956720       -4.6859842958       -1.9954375733
 C          1.4669573633       -2.6351613856       -2.6403619829
 H          0.6819817376       -1.8749175948       -2.6833525842
 H          1.8549243302       -2.7686234156       -3.6542684276
 C          2.6148683804       -2.0950237297       -1.7773935677
 H          3.0994982277       -1.2897677982       -2.3376630715
 H          3.3502148755       -2.8849956496       -1.6050836941
 H         -0.1211041337       -4.1457355982        1.1688651807
 H          0.7143391858       -5.4302263208        0.2874983448
 H          2.6940957026       -4.0770781308        0.0087447396
 H          2.2043149474       -3.9901203725        1.7113025945
 O          1.4803099783       -1.6559214002        1.7856224989
 C          1.3847723093       -0.2792862534        1.9236864878
 O          0.9807121639        0.0918495310        3.0437585384
 H         -0.8136713654        1.1650727632        0.4019209090
 C         -0.5210286820        1.9691029570       -0.2575320939
 C          0.7133082297        2.5777018858       -0.0676668870
 C          1.0780566202        3.6174704152       -0.9108516770
 C          0.2312349829        4.0114583939       -1.9333103382
 C         -0.9739216183        3.3685790757       -2.1491012648
 C         -1.3488418089        2.3285726348       -1.3056115804
 N         -2.5582689833        1.6373724934       -1.4801561387
 S         -2.5930166084       -0.0130916747       -1.1880483747
 O         -1.3346995535       -0.6466168302       -1.4982483805
 O         -3.7421536101       -0.4828872237       -1.9348598569
 C         -2.9548287288       -0.1406166477        0.5500691607
 C         -4.0475587555        0.5454096635        1.0422408086
 C         -4.3438318288        0.4509423560        2.3922819386
 C         -3.5471372971       -0.3227743494        3.2232508838
 C         -2.4565025083       -1.0100665011        2.7136100513
 C         -2.1586862619       -0.9214467675        1.3634413389
 H         -1.3086472079       -1.4304912905        0.9345989132
 H         -1.8235957170       -1.5992405240        3.3581183085
 H         -3.7728935899       -0.3904925507        4.2757368223
 H         -5.1907750210        0.9832035056        2.7943528848
 H         -4.6402702000        1.1365002247        0.3643173153
 H         -3.0736250910        1.8828328051       -2.3130660695
 H         -1.6156239858        3.6582941359       -2.9674218901
 H          0.5259295955        4.8174195647       -2.5884357303
 H          2.0342472152        4.0993022956       -0.7888804804
 C          1.5707311914        2.0303329349        1.0462988130
 H          0.9967445326        2.1230753097        1.9837065108
 C          2.8678328224        2.7942070465        1.2599938181
 C          4.0765972001        2.1147149777        1.8295448177
 C          4.0818008043        2.5855717426        0.4076600016
 H          4.6839819389        3.4471780115        0.1579355324
 H          4.0185578931        1.8531490152       -0.3807170389
 H          4.0101259489        1.0523054334        2.0156740771
 H          4.6729391417        2.6491500429        2.5537773826
 H          2.6846166084        3.8080961453        1.6027492905
 O          2.3184567488        0.6712362092       -1.4446109475
