  62
        -98.93705057
 C         -1.5147760578       -1.6312014643       -0.1297652357
 C         -1.4239996707       -0.2879857127        0.3097711862
 C         -2.6986651905        0.3631528613        0.6744572893
 C         -3.8370235196       -0.3493511280        0.6610549792
 C         -5.2276515407        0.0856755399        1.0525076404
 C         -5.6966147645        1.4701102132        0.5866600591
 C         -5.1568243760        1.9087427493       -0.7821464443
 H         -4.6871683306        1.0630756787       -1.2876443259
 H         -5.9915777113        2.2363009287       -1.4047927339
 C         -4.1593486376        3.0651353828       -0.6864189812
 H         -4.0989010975        3.5564715168       -1.6606214593
 H         -4.5427378290        3.7989075975        0.0259086421
 C         -2.7366597578        2.6749101245       -0.2871341420
 H         -2.1655388112        3.5960721528       -0.1545311974
 H         -2.2654272522        2.1175779865       -1.1013236884
 C         -2.6102158822        1.8286208400        0.9903741252
 H         -3.3440305596        2.1262854703        1.7352389143
 H         -1.6083540098        1.9841126570        1.3998948471
 H         -5.4258437221        2.2169495215        1.3315389558
 H         -6.7871497898        1.4389151969        0.5557052254
 H         -5.8902556910       -0.6812942444        0.6438978090
 H         -5.3061305694        0.0295276722        2.1422584823
 O         -3.8640667833       -1.6665594058        0.3060045710
 C         -2.7231013215       -2.3297297865       -0.1091389510
 O         -2.9095799142       -3.5246990812       -0.4163138872
 O         -0.3452824857        0.3481256085        0.4071064112
 C         -0.2899960685       -2.4054226860       -0.5847109691
 C          0.8453127464       -2.1902898795        0.3843475550
 C          0.7042168172       -2.6573360605        1.6889172815
 C          1.7112384649       -2.4773055885        2.6165275253
 C          2.8791060707       -1.8236183132        2.2641142190
 C          3.0295892909       -1.3553699984        0.9647209125
 C          2.0193593773       -1.5451536385        0.0317819864
 H          2.1594953804       -1.1644799433       -0.9653281246
 N          4.2098677357       -0.7067936225        0.5755197513
 S          4.1896856378        0.5330465140       -0.5405871276
 O          3.9810662791        0.0066317713       -1.8668607844
 O          5.4562004277        1.2061297878       -0.3321755865
 C          2.8644223356        1.6345659387       -0.0858146836
 C          2.7943714060        2.0779729136        1.2189966736
 C          1.8030645485        2.9792178865        1.5666154464
 C          0.9090709918        3.4258335203        0.6070086507
 C          0.9928239407        2.9711391597       -0.6980411231
 C          1.9783567748        2.0644459010       -1.0496034540
 H          2.0713233395        1.6775714764       -2.0518848299
 H          0.2897956535        3.3122218078       -1.4415017011
 H          0.1388164604        4.1302125151        0.8809407822
 H          1.7273289431        3.3279707436        2.5844072111
 H          3.5081892363        1.7208833739        1.9438324730
 H          4.8677036562       -0.5290666104        1.3197273960
 H          3.6670081566       -1.6781151725        2.9873881187
 H          1.5861639423       -2.8436888948        3.6244111716
 H         -0.2136728303       -3.1587611127        1.9660270750
 H         -0.5851878485       -3.4664046016       -0.5269168984
 C          0.1040290511       -2.1423967100       -2.0304199434
 C         -0.9296038398       -1.8175750266       -3.0660352251
 C          0.0584210125       -0.7752131735       -2.6406811745
 H          0.8462522044       -0.5004782817       -3.3278334431
 H         -0.2816968823        0.0377798354       -2.0191641538
 H         -0.8292667967       -2.2564026805       -4.0474012541
 H         -1.9534886006       -1.7190847447       -2.7347206820
 H          0.9174174637       -2.7871146186       -2.3509504046
