  62
        -98.94430048
 C          2.1070905962        1.3934487466        0.0129783425
 C          2.4166333168        0.4322174549       -0.9794931466
 C          3.7602971134       -0.1619346567       -0.9037798090
 C          4.6082607241        0.2269409850        0.0646682177
 C          5.9775582822       -0.3432752962        0.2911028424
 C          5.9316774631       -1.5238701861        1.2713307431
 C          4.8624171500       -2.5642297842        0.9370949433
 H          4.9445751050       -3.3638762254        1.6765300140
 H          3.8744158048       -2.1143626092        1.0614348757
 C          4.9740303118       -3.1596982282       -0.4734453150
 H          4.8425153765       -4.2418596391       -0.4076304580
 H          5.9721289919       -2.9787372649       -0.8741106988
 C          3.9291309484       -2.6441757175       -1.4648351737
 H          3.9589208153       -3.2826716663       -2.3519686178
 H          2.9318637208       -2.7396895910       -1.0270809601
 C          4.1142597712       -1.1959855237       -1.9356621166
 H          5.1365466308       -1.0526069024       -2.2908559738
 H          3.4325848059       -1.0300951717       -2.7749300833
 H          5.7290907094       -1.1356146995        2.2721871721
 H          6.9135819412       -2.0003926517        1.2841743802
 H          6.3950485911       -0.6640970180       -0.6612801692
 H          6.6112896842        0.4402612955        0.7098887226
 O          4.2860950298        1.1654040935        0.9895654508
 C          3.0369904342        1.7590894980        0.9932231758
 O          2.8748473789        2.5963632693        1.9030507493
 H         -0.2704463461       -0.2105885668       -0.8586349870
 C         -0.7058668077        0.0567704063        0.0926211765
 C         -0.2785156944        1.2102634443        0.7350602382
 C         -0.8384187885        1.5321425702        1.9658775416
 C         -1.7936467415        0.7128958450        2.5425664649
 C         -2.2108227136       -0.4408057985        1.9038293833
 C         -1.6575304492       -0.7696624192        0.6725533917
 N         -2.0762629576       -1.9368884498        0.0117911602
 S         -3.7204233024       -2.2334102343       -0.0672352424
 O         -4.1599685087       -2.8499884854        1.1603778040
 O         -3.9129004037       -3.0164266659       -1.2676957687
 C         -4.4788198100       -0.6266713990       -0.2364380468
 C         -5.3824582622       -0.1895730102        0.7102970440
 C         -5.9370594310        1.0732004831        0.5753711497
 C         -5.5763473746        1.8743266206       -0.4965178746
 C         -4.6693631217        1.4192547699       -1.4414187070
 C         -4.1133713666        0.1571749599       -1.3130099046
 H         -3.4075722879       -0.2248585681       -2.0332396895
 H         -4.3900973044        2.0435027821       -2.2749232055
 H         -6.0038234472        2.8592887887       -0.5981169163
 H         -6.6441326597        1.4285479064        1.3074918437
 H         -5.6309350832       -0.8437869945        1.5300891683
 H         -1.6281574147       -2.0789578449       -0.8815981084
 H         -2.9446886798       -1.0970389228        2.3432177526
 H         -2.2162134333        0.9736932564        3.5007788903
 H         -0.5073106574        2.4240594657        2.4776175639
 C          0.7633121434        2.1024230170        0.1026435601
 H          0.9260936407        2.9535552347        0.7766956421
 C          0.2844998151        2.6370889003       -1.2339754715
 C         -0.7409192491        3.7286812469       -1.2525732781
 C          0.6743785371        4.0223687319       -1.6488924609
 H          0.8944490414        4.2052999414       -2.6900382310
 H          1.2884826298        4.5938742200       -0.9678744988
 H         -1.4956396162        3.7122847009       -2.0234066905
 H         -1.0893522230        4.1037519272       -0.3023793607
 H          0.2354527241        1.8836105687       -2.0084116390
 O          1.6301544346        0.0677612621       -1.8954937816
