  62
        -98.94531322
 C         -2.2884371357       -0.6947156155        0.0604796594
 C         -2.4406879026        0.2287873799        1.1229686276
 C         -2.5631308571        1.6373699498        0.7356448888
 C         -2.5389637590        1.9752410322       -0.5666477673
 C         -2.6960720881        3.3646120402       -1.1214441521
 C         -1.3862737870        4.1618226589       -1.1687459934
 C         -0.8591534937        4.6293897207        0.1880558787
 H         -0.0564520033        5.3423921562       -0.0077326227
 H         -1.6475960161        5.1648092811        0.7180022744
 C         -0.3118244490        3.5044894297        1.0778880814
 H         -0.1160222534        2.6185526157        0.4686577704
 H          0.6450639204        3.8109056382        1.5061134152
 C         -1.2250662484        3.1187358765        2.2423996796
 H         -1.3221808475        3.9637000267        2.9276729193
 H         -0.7547408875        2.2969793734        2.7891437082
 C         -2.6308548832        2.6659456691        1.8236473801
 H         -3.2225866351        3.5232936003        1.5042008191
 H         -3.1167303065        2.2078509165        2.6886459516
 H         -1.5617620780        5.0428331734       -1.7900898793
 H         -0.6300278682        3.5468962946       -1.6592208084
 H         -3.0673961358        3.2515390474       -2.1422410654
 H         -3.4397652434        3.9099389076       -0.5400407605
 O         -2.3770285611        1.0598649791       -1.5571002955
 C         -2.2095194848       -0.2880406024       -1.2719443016
 O         -2.0091371365       -0.9985232673       -2.2741644723
 O         -2.4695033022       -0.1093880376        2.3377928721
 C         -2.1245538197       -2.1674073801        0.3974840411
 C         -0.7028360306       -2.5690283634        0.0918288303
 C         -0.3506679570       -3.5038556803       -0.8711075121
 C          0.9838752397       -3.7775519965       -1.1226589486
 C          1.9883786601       -3.1405482562       -0.4177262066
 C          1.6457000872       -2.2031183401        0.5510658180
 C          0.3095631736       -1.9264898718        0.7965806476
 H          0.0398271768       -1.1970110535        1.5500594671
 N          2.6502729016       -1.5630786814        1.3028336771
 S          3.8945229603       -0.7314186071        0.5659664055
 O          4.5491432591       -1.5991159496       -0.3794105652
 O          4.7092609032       -0.2303272152        1.6481746391
 C          3.1603708882        0.6476621928       -0.3000043768
 C          3.4832380341        1.9297132177        0.0992087676
 C          2.9499117121        3.0042002706       -0.5933773043
 C          2.0970028493        2.7796181238       -1.6627939776
 C          1.7629796784        1.4868880911       -2.0374595625
 C          2.3030873099        0.4071270834       -1.3560037046
 H          2.0666391929       -0.6069992320       -1.6370876284
 H          1.0826444143        1.3080567919       -2.8560512713
 H          1.6931434041        3.6172553303       -2.2095015236
 H          3.2016376016        4.0108412080       -0.3013119516
 H          4.1523850841        2.0555764127        0.9349744227
 H          2.2885717900       -1.0163106037        2.0711402549
 H          3.0290774715       -3.3403618482       -0.6135005253
 H          1.2462796641       -4.5022447988       -1.8786188274
 H         -1.1177125211       -4.0098532106       -1.4331795396
 H         -2.2672437535       -2.2332032672        1.4858212197
 C         -3.1718793477       -3.0201461337       -0.2829375810
 C         -3.4878875473       -4.3801070746        0.2616963212
 C         -4.4757992331       -3.2638002409        0.4135924514
 H         -5.3789034388       -3.2884426857       -0.1775375624
 H         -4.6080401844       -2.8267462593        1.3926900024
 H         -3.7146937611       -5.1746679358       -0.4327263125
 H         -2.9487476016       -4.7035093181        1.1393300824
 H         -3.2008566097       -2.8798519194       -1.3568797158
