  62
        -98.93552940
 C         -1.5575571551       -0.3935937847        0.3980821921
 C         -2.7115236801       -1.0194454521       -0.1274275394
 C         -3.7965356648       -0.1261326802       -0.5809429543
 C         -3.6408182694        1.2078145247       -0.5042068647
 C         -4.5455793732        2.3461357589       -0.9283915182
 C         -6.0175236282        2.0988142433       -1.2487247950
 C         -6.8728592459        1.6840656055       -0.0519353287
 H         -6.9654003535        2.5392993009        0.6222779804
 H         -7.8729866789        1.4385807439       -0.4159582396
 C         -6.3396008550        0.5098497869        0.7651216466
 H         -5.3841789781        0.7818164513        1.2184236133
 H         -7.0420690604        0.3252786414        1.5825373017
 C         -6.1687037659       -0.7984029030       -0.0044420623
 H         -7.1083672110       -1.0632085844       -0.4932054527
 H         -5.9390771336       -1.5805395859        0.7242632226
 C         -5.0479089862       -0.8055204124       -1.0583412259
 H         -5.3846247152       -0.3744602337       -1.9979550515
 H         -4.7762731604       -1.8467451905       -1.2545378644
 H         -6.1122238067        1.3752491066       -2.0530072793
 H         -6.4162272810        3.0444645039       -1.6262410595
 H         -4.4743908714        3.0936375535       -0.1319410509
 H         -4.0701742791        2.7898956716       -1.8101369894
 O         -2.4922621150        1.7673133303       -0.0220339532
 C         -1.4424433708        0.9983973006        0.4412955995
 O         -0.4748744487        1.6598331602        0.8669271281
 O         -2.8585995684       -2.2660918633       -0.2296377206
 C         -0.3557637057       -1.1595190745        0.9278150947
 C          0.5399588062       -1.5952378904       -0.2069516897
 C          0.1574272764       -2.5863095107       -1.1046762073
 C          1.0062406897       -2.9617748166       -2.1295090843
 C          2.2510665062       -2.3733160722       -2.2691349461
 C          2.6392685334       -1.3763800177       -1.3816326069
 C          1.7774166648       -0.9884947368       -0.3656695352
 H          2.0743079467       -0.2036344066        0.3127942702
 N          3.8823710690       -0.7445706564       -1.5123687456
 S          4.7284878006       -0.2145425036       -0.1721395138
 O          6.0946364620       -0.1010493887       -0.6369785375
 O          4.5169768361       -1.0760446049        0.9676069685
 C          4.0889470011        1.4149126431        0.1458993357
 C          3.6338827092        1.7400946033        1.4076247961
 C          3.1523187636        3.0184132348        1.6388035147
 C          3.1373577955        3.9452543310        0.6088354749
 C          3.6028872110        3.6048840890       -0.6522030189
 C          4.0849772273        2.3282422408       -0.8893502850
 H          4.4568568003        2.0276456141       -1.8547809051
 H          3.5877424233        4.3299564830       -1.4501118703
 H          2.7569286312        4.9379350592        0.7909911023
 H          2.7842029073        3.2829863375        2.6170265743
 H          3.6570333209        0.9872604715        2.1803515955
 H          4.4877140021       -1.1246769787       -2.2247591190
 H          2.9168414965       -2.6781746703       -3.0623489650
 H          0.6998150113       -3.7302441800       -2.8232435891
 H         -0.8145047142       -3.0429711642       -1.0013469820
 H          0.2104088063       -0.4366196233        1.5311320591
 C         -0.7245400969       -2.3316099971        1.8159873892
 C          0.3330978519       -2.9195884881        2.6993137953
 C         -0.7935302342       -2.1334232690        3.2986781641
 H         -1.5531723408       -2.6623388939        3.8545896913
 H         -0.5789712160       -1.1466686759        3.6832569330
 H          0.3473416532       -3.9890644396        2.8438590046
 H          1.3148980881       -2.4691639160        2.6724035739
 H         -1.4424716858       -3.0064575754        1.3700352951
