  62
        -98.93933671
 C          2.1249981034        0.9709016778        0.0985878581
 C          2.8068610896        0.2803425514        1.1256844910
 C          3.5420478988       -0.9319762479        0.7265098684
 C          3.4915482019       -1.3320188452       -0.5561174406
 C          4.2047984678       -2.5014591679       -1.1763255705
 C          5.5482048956       -2.0586782206       -1.7809357893
 C          6.7267970752       -2.0678076798       -0.8080709879
 H          6.9970721730       -3.1015361000       -0.5826152192
 H          7.5756155912       -1.6120433759       -1.3228200033
 C          6.4948612454       -1.3246220305        0.5101767511
 H          5.9825899716       -0.3807172260        0.3154569837
 H          7.4714595857       -1.0812401106        0.9329724575
 C          5.7021994730       -2.1481731672        1.5361053114
 H          6.2364648476       -2.1498730346        2.4883837782
 H          5.6602071544       -3.1852966972        1.2036542529
 C          4.2809064923       -1.6430123472        1.8277154128
 H          3.6679844386       -2.4824960889        2.1736455158
 H          4.3124519406       -0.9212670457        2.6500228259
 H          5.7919777465       -2.7210106064       -2.6139977553
 H          5.4150687819       -1.0540945426       -2.1905439191
 H          4.3427495376       -3.2980823379       -0.4511221214
 H          3.5626781130       -2.8657412414       -1.9811939242
 O          2.7898935115       -0.6578789346       -1.5085978721
 C          2.0920766989        0.5017085045       -1.2146461896
 O          1.4995259053        1.0066072915       -2.1861337111
 O          2.8020872655        0.6592767702        2.3293581893
 C          1.3510336992        2.2308673081        0.4445108295
 C         -0.1169619648        2.0070056658        0.1753173138
 C         -0.8995881739        2.8550453113       -0.5958257177
 C         -2.2339270538        2.5625440064       -0.8223580980
 C         -2.8168128105        1.4316861379       -0.2815568831
 C         -2.0445131499        0.5800233367        0.4981092229
 C         -0.7099525803        0.8754554375        0.7233265301
 H         -0.1072389967        0.2071488255        1.3270462064
 N         -2.6307895787       -0.5675128336        1.0653467689
 S         -3.4273455267       -1.6222501372        0.0264968385
 O         -3.3863036933       -2.9071603164        0.6915081245
 O         -2.8781124173       -1.5722033846       -1.3089564180
 C         -5.1044123753       -1.0241184073        0.0257668270
 C         -5.7520865321       -0.9005886567        1.2395473135
 C         -7.0592910328       -0.4412353709        1.2559791720
 C         -7.6938326224       -0.1182372942        0.0655600789
 C         -7.0308972676       -0.2512779508       -1.1448543752
 C         -5.7225064904       -0.7092365852       -1.1684137550
 H         -5.1639589660       -0.8223507852       -2.0840525124
 H         -7.5254811891        0.0001028454       -2.0693295479
 H         -8.7111385661        0.2396802878        0.0810847459
 H         -7.5780147343       -0.3361824260        2.1951833273
 H         -5.2235048934       -1.1650281119        2.1400828209
 H         -2.0004632959       -1.0821665401        1.6641598299
 H         -3.8535189109        1.1985032902       -0.4615199331
 H         -2.8284310945        3.2258486864       -1.4317949786
 H         -0.4629983790        3.7384114268       -1.0314213582
 H          1.4822633534        2.3655155999        1.5284975433
 C          1.9301968206        3.4325954269       -0.2701886940
 C          1.7715347718        4.8031213835        0.3151945634
 C          3.1112135405        4.1324263381        0.3304439821
 H          3.8824317289        4.5003357520       -0.3295107655
 H          3.4858974828        3.7553241976        1.2709379278
 H          1.6247317933        5.6363088201       -0.3551567576
 H          1.2371102729        4.8878177366        1.2491465405
 H          1.9067947746        3.3273040218       -1.3489293543
