  62
        -98.94756574
 C          0.7574010967        1.2692396999        0.0681726881
 C          1.4687900814        0.5692987183        1.0705584314
 C          2.4054736197       -0.4563231250        0.5931004328
 C          2.4796320166       -0.7159899073       -0.7250156940
 C          3.4545279996       -1.6652661496       -1.3576491436
 C          4.7484443770       -0.9394846290       -1.7555772930
 C          5.3404842817       -0.0711374815       -0.6452640951
 H          6.2636081341        0.3661127535       -1.0321273939
 H          4.6577515968        0.7555638299       -0.4356388932
 C          5.6397930327       -0.8230582041        0.6592084396
 H          6.6268688284       -0.5233373504        1.0175575031
 H          5.6771363663       -1.8961172281        0.4684659800
 C          4.6515119797       -0.5443324197        1.7933954078
 H          4.5429629130        0.5348476536        1.9286009238
 H          5.0718841377       -0.9482584007        2.7183859450
 C          3.2537914216       -1.1526569563        1.6195055094
 H          3.3472494573       -2.2156523668        1.3907851352
 H          2.7231793977       -1.0469123414        2.5703546719
 H          5.4821140570       -1.6861558135       -2.0646691741
 H          4.5352787101       -0.2970038096       -2.6128856907
 H          3.6794034321       -2.4695722488       -0.6606897305
 H          2.9962665956       -2.0821533090       -2.2552230261
 O          1.7088298865       -0.0881058170       -1.6485515506
 C          0.8564334543        0.9428545831       -1.2844314256
 O          0.2539923495        1.4729733468       -2.2364648535
 H         -1.5438666723        0.1595786358        0.4476730625
 C         -2.1120865082        0.9668659942        0.0084728882
 C         -1.5414335341        2.2306941772       -0.0705540110
 C         -2.2887295692        3.2634160114       -0.6223439514
 C         -3.5674410045        3.0258078168       -1.0953593647
 C         -4.1279386713        1.7646122709       -1.0224106159
 C         -3.3905503237        0.7248983439       -0.4656458799
 N         -3.9134678663       -0.5724801705       -0.4122304062
 S         -3.4142983478       -1.6750179235        0.7296958373
 O         -4.4021238527       -2.7314184683        0.6565332682
 O         -3.2447421602       -1.0679462129        2.0296863099
 C         -1.8644304692       -2.3062214276        0.1250165340
 C         -0.8629819985       -2.5960832968        1.0298000554
 C          0.3122106129       -3.1668798473        0.5699040204
 C          0.4665647399       -3.4329496433       -0.7812271914
 C         -0.5424841661       -3.1224431256       -1.6792903961
 C         -1.7236536498       -2.5590377459       -1.2246701540
 H         -2.5293503850       -2.3098781222       -1.8951731861
 H         -0.4139125450       -3.3196697808       -2.7314422805
 H          1.3785294253       -3.8858712455       -1.1356401065
 H          1.0983727713       -3.4004656279        1.2693457449
 H         -1.0173745809       -2.3610036113        2.0713890886
 H         -4.8813332003       -0.6751549884       -0.6763297592
 H         -5.1230191484        1.5792815887       -1.3967852583
 H         -4.1360544121        3.8355134603       -1.5270045596
 H         -1.8693902801        4.2538762331       -0.6878997096
 C         -0.1465515005        2.4190351031        0.4702812361
 H         -0.2000809012        2.3826202412        1.5694288910
 C          0.4856991125        3.7337215942        0.0576179628
 C          0.2661324917        4.9737100108        0.8703385025
 C          1.6000080953        4.2915054317        0.8896326764
 H          2.4315929938        4.7652360644        0.3896803432
 H          1.8801360925        3.7379387243        1.7741458448
 H         -0.3562064195        4.8922015993        1.7487707169
 H          0.1843149209        5.9198891834        0.3568108546
 H          0.5674241577        3.8328614511       -1.0194291733
 O          1.3388558580        0.8019685227        2.3037057388
