  62
        -98.94128838
 C          2.4163191852        1.1502830306        0.5800482811
 C          2.8510221763        0.3685553857       -0.5180638125
 C          3.2488149927       -1.0108749292       -0.2009905242
 C          3.1662983504       -1.4666952782        1.0607270230
 C          3.5063586992       -2.8555375971        1.5276319301
 C          2.3635174846       -3.8621810484        1.3344188928
 C          2.1204350708       -4.3034534060       -0.1096578249
 H          3.0617446951       -4.6286569527       -0.5548403473
 H          1.4587945870       -5.1711216194       -0.0716086375
 C          1.4706132406       -3.2343883150       -0.9996156219
 H          1.0014313377       -2.4688908760       -0.3753266947
 H          0.6624980422       -3.6840950932       -1.5833686149
 C          2.4273313110       -2.5671630902       -1.9882687091
 H          2.7787453259       -3.3070894422       -2.7115082991
 H          1.8702651853       -1.8022159907       -2.5361735361
 C          3.6475735141       -1.8979141480       -1.3421498685
 H          4.3554115071       -2.6546968030       -1.0054805550
 H          4.1324496276       -1.2729439601       -2.0965496305
 H          1.4439434454       -3.4289613165        1.7359496120
 H          2.6037990957       -4.7479585573        1.9272300620
 H          4.3994976009       -3.2115404712        1.0135630910
 H          3.7236550265       -2.7809848370        2.5952424034
 O          2.7573667001       -0.6817443704        2.0918851697
 C          2.3449593302        0.6203062600        1.8718648243
 O          1.9544906267        1.2126962604        2.8981997187
 H          0.5340023135        0.9861928872       -1.2822146917
 C         -0.1393260888        1.5736138759       -0.6740254149
 C          0.3776810649        2.4753979658        0.2460597232
 C         -0.5102737310        3.2176063927        1.0145449103
 C         -1.8775650553        3.0503841860        0.8721760463
 C         -2.3855940844        2.1240679940       -0.0221506686
 C         -1.5042200280        1.3819454716       -0.7958273464
 N         -2.0125744879        0.3635379517       -1.6480623516
 S         -2.2180510026       -1.0769212904       -0.7847014459
 O         -1.1968749558       -1.2357735293        0.2274462174
 O         -2.3089842865       -2.1249813697       -1.7771640178
 C         -3.8041797419       -0.8285281654       -0.0202380466
 C         -3.8716413371       -0.5278452235        1.3256012115
 C         -5.1130551945       -0.2956737371        1.8974034099
 C         -6.2567831092       -0.3658257970        1.1164527958
 C         -6.1714093892       -0.6702667519       -0.2342495847
 C         -4.9337391763       -0.9032931448       -0.8119798156
 H         -4.8179365761       -1.1475468053       -1.8547695959
 H         -7.0633537679       -0.7247225728       -0.8372922381
 H         -7.2206010053       -0.1819265352        1.5642612890
 H         -5.1803730172       -0.0582682446        2.9469543455
 H         -2.9546019893       -0.4796904925        1.8917386199
 H         -1.3888368038        0.1711464535       -2.4216151422
 H         -3.4474303987        1.9687287426       -0.1233752325
 H         -2.5541609347        3.6331551976        1.4779334649
 H         -0.1211519031        3.9100136541        1.7466050060
 C          1.8703537796        2.5640810505        0.4412561292
 H          2.0493036263        3.0469250722        1.4150249726
 C          2.5724333616        3.3971656779       -0.6200210946
 C          1.9231356661        3.8048598046       -1.9052664376
 C          2.1611837158        4.8240051436       -0.8344240741
 H          2.9300856155        5.5661618380       -0.9853245922
 H          1.3018837142        5.1799993822       -0.2864281732
 H          0.9090492000        3.4851566333       -2.0888284134
 H          2.5387241874        3.8222548116       -2.7915030795
 H          3.6347060178        3.1832372388       -0.6659823386
 O          2.9035809936        0.7716762571       -1.7098774354
