  62
        -98.94570667
 C         -2.4345193818       -0.8504298531        0.1620387639
 C         -1.9519355013        0.0312933652       -0.8354774505
 C         -2.3841028649        1.4288608494       -0.7080816277
 C         -3.1974711637        1.7908063930        0.3007856209
 C         -3.7371819883        3.1734186889        0.5495695357
 C         -2.7786435001        4.0877277079        1.3252912181
 C         -1.5619530920        4.5751596653        0.5372400435
 H         -1.8939430517        5.0191396066       -0.4015551114
 H         -1.0961365668        5.3676087225        1.1263110084
 C         -0.5143987843        3.4888638672        0.2532584646
 H          0.4822934443        3.8740971834        0.4790840902
 H         -0.6842101677        2.6382791916        0.9179301253
 C         -0.4935438425        2.9914391662       -1.1919918692
 H         -0.1976580751        3.8068570116       -1.8547960952
 H          0.2566117203        2.2006903440       -1.2713593085
 C         -1.8315737286        2.4241366117       -1.6827471558
 H         -1.6562673364        1.9022831464       -2.6262984340
 H         -2.5454618491        3.2294896061       -1.8531457448
 H         -3.3507085537        4.9613034923        1.6462609306
 H         -2.4450819799        3.5624980251        2.2235739847
 H         -3.9995025106        3.6408606456       -0.3997605327
 H         -4.6477626222        3.0503577395        1.1399562147
 O         -3.6482526607        0.9080379766        1.2327287092
 C         -3.2643814147       -0.4238494641        1.1976798554
 O         -3.7187039193       -1.1151421791        2.1330234964
 O         -1.2006552305       -0.3259421140       -1.7785078929
 C         -2.0480529554       -2.3162677201        0.1196759908
 C         -0.5473697326       -2.4829818667        0.0892654846
 C          0.0827489343       -3.4593235779       -0.6721267292
 C          1.4598408312       -3.5938136549       -0.6397865844
 C          2.2379342274       -2.7637991401        0.1455421984
 C          1.6204597391       -1.7763177233        0.9038342976
 C          0.2385604672       -1.6514208855        0.8769625439
 H         -0.2412077470       -0.8892939049        1.4794333591
 N          2.3837025279       -0.9324019552        1.7270566704
 S          3.8302477393       -0.2583501014        1.2359728186
 O          4.7827233284       -1.3100872999        0.9825237524
 O          4.1706386785        0.6747882762        2.2853252683
 C          3.4993837572        0.6339280638       -0.2720436188
 C          3.4877232973       -0.0390723039       -1.4774010326
 C          3.2135161802        0.6698672466       -2.6362007347
 C          2.9662718503        2.0320414550       -2.5726182227
 C          2.9873571350        2.6945885859       -1.3547729376
 C          3.2491436888        1.9895578160       -0.1915594902
 H          3.2800816663        2.4656375333        0.7753767374
 H          2.7973858778        3.7548370578       -1.3085642695
 H          2.7550421408        2.5805730583       -3.4768557240
 H          3.1934778583        0.1558616843       -3.5835785338
 H          3.6978914533       -1.0952085964       -1.4952763059
 H          1.8374642540       -0.2571932369        2.2401233534
 H          3.3097381754       -2.8693268219        0.1897348587
 H          1.9353102519       -4.3605995805       -1.2325231981
 H         -0.5048480453       -4.1178275640       -1.2902446929
 H         -2.4187350624       -2.7583934296        1.0568443447
 C         -2.7463278777       -2.9918927101       -1.0443020669
 C         -3.1777347293       -4.4235690851       -0.9477921617
 C         -4.2002373085       -3.3288528436       -0.9132918848
 H         -4.8420391107       -3.1914699867       -1.7705835114
 H         -4.6770777483       -3.1002366065        0.0291386605
 H         -3.1214734437       -5.0405728040       -1.8320437656
 H         -2.9700059282       -4.9492490182       -0.0279249588
 H         -2.4033665000       -2.6217721940       -2.0037434162
