  62
        -98.94137631
 C         -1.7753389506       -0.8536002797        0.2237311701
 C         -2.0243964705        0.5100475404       -0.0883255196
 C         -3.3412586505        0.8250694206       -0.6549579695
 C         -4.2164828205       -0.1735495093       -0.8697725498
 C         -5.6108042705        0.0023806209       -1.3960364197
 C         -6.6177039105        0.1850274108       -0.2518401997
 C         -6.1974383004        1.2337976905        0.7779203205
 H         -6.9969276104        1.3004324404        1.5190533405
 H         -5.3042830205        0.8826437404        1.2997819104
 C         -5.9262424603        2.6261838806        0.1911356108
 H         -6.3806004703        2.7066666209       -0.7970423092
 H         -6.4035011103        3.3733664905        0.8287848709
 C         -4.4451964403        2.9988072505        0.1000083109
 H         -3.9651748503        2.8287369403        1.0669168909
 H         -4.3772592902        4.0683637606       -0.1156821889
 C         -3.6357574003        2.2634894807       -0.9758233093
 H         -4.1437947403        2.3463273809       -1.9388136892
 H         -2.6629760303        2.7570599206       -1.0559788391
 H         -7.5827346405        0.4598697509       -0.6816531897
 H         -6.7348775006       -0.7718025093        0.2622682301
 H         -5.6368714704        0.8653447211       -2.0586107496
 H         -5.8785556306       -0.8896376389       -1.9648915499
 O         -3.9376061906       -1.4684691294       -0.5840207300
 C         -2.7226503207       -1.8462538696       -0.0285466501
 O         -2.6379432508       -3.0735789196        0.1760432096
 O         -1.1797663104        1.4245160903        0.1067548706
 C         -0.4202987106       -1.1645077799        0.8334101801
 C          0.5733906093       -1.6573264098       -0.1916828300
 C          0.3440289693       -2.8072041596       -0.9396040803
 C          1.2918054592       -3.2514141395       -1.8430300703
 C          2.4910038593       -2.5780669096       -1.9983482402
 C          2.7311559894       -1.4302580598       -1.2530188499
 C          1.7647873594       -0.9697749099       -0.3698937599
 H          1.9488945595       -0.0664587200        0.1911973203
 N          3.9330852294       -0.7216292298       -1.3852376198
 S          4.6617796895       -0.0526723302       -0.0338057196
 O          6.0582427295        0.0618114598       -0.3965512296
 O          4.3733325294       -0.8155088504        1.1576199502
 C          3.9647001296        1.5799983699        0.0875601007
 C          4.0352489197        2.4050818301       -1.0172376391
 C          3.5149005998        3.6858725701       -0.9295094589
 C          2.9381408798        4.1184561499        0.2550745712
 C          2.8788488997        3.2796149097        1.3567717410
 C          3.3974897996        1.9971795897        1.2748305608
 H          3.3679395095        1.3109923395        2.1070476006
 H          2.4274620297        3.6165121795        2.2762710911
 H          2.5308634699        5.1150194999        0.3212389614
 H          3.5580926098        4.3424381403       -1.7835973387
 H          4.4941530497        2.0345809802       -1.9186829592
 H          4.6074682294       -1.1389251498       -2.0099995499
 H          3.2362592393       -2.9378040995       -2.6916661403
 H          1.1014691092       -4.1423706394       -2.4225272605
 H         -0.5815151808       -3.3456484096       -0.8061344504
 H         -0.0485116506       -0.2007332301        1.2076884003
 C         -0.4738191807       -2.1377647302        1.9968640699
 C          0.7267686592       -2.2603221505        2.8856090999
 C         -0.5228538007       -1.6103640405        3.3977815000
 H         -1.1174396808       -2.1397527506        4.1272708599
 H         -0.5229000406       -0.5380976805        3.5294094502
 H          0.9880915392       -3.2377949906        3.2616431497
 H          1.5826432193       -1.6387910505        2.6647097200
 H         -1.0321839108       -3.0387282401        1.7790595097
