  62
        -98.93804967
 C         -2.4832729013       -1.2062016142        0.2646791665
 C         -2.7118408213       -0.3902441533       -0.8663834830
 C         -3.6197605210        0.7610150850       -0.6821956097
 C         -4.1591533366        0.9741021556        0.5325314226
 C         -5.0674968808        2.0945983554        0.9641438460
 C         -4.3158343839        3.4200567962        1.1700992216
 C         -3.2942839971        3.7559469607        0.0863869789
 H         -2.7534679278        4.6506958733        0.4062778034
 H         -2.5653852243        2.9459925970        0.0163987745
 C         -3.8795857943        4.0330722103       -1.2963465545
 H         -4.5738749784        4.8735415023       -1.2285071154
 H         -3.0525594902        4.3365560523       -1.9432018238
 C         -4.6000659299        2.8607391225       -1.9651685661
 H         -5.5907618762        2.7173450743       -1.5423769632
 H         -4.7469869180        3.1268721470       -3.0159511987
 C         -3.8261282753        1.5460215040       -1.9552086549
 H         -2.8249809381        1.7148978284       -2.3679306543
 H         -4.3107600766        0.8520850289       -2.6525909832
 H         -5.0491596824        4.2246873220        1.2444307827
 H         -3.7828134012        3.3609387148        2.1224926403
 H         -5.8767745181        2.2140977881        0.2501363553
 H         -5.5066973670        1.7928741791        1.9176167942
 O         -3.8903306468        0.1694320002        1.6022119028
 C         -3.0569719652       -0.9270436293        1.5029822034
 O         -2.9011296674       -1.5596027496        2.5689211165
 O         -2.1799005029       -0.6018620633       -1.9871219401
 C         -1.5698403125       -2.4124506190        0.1569562084
 C         -0.1826288502       -1.9917149576       -0.2667704336
 C          0.5740542445       -2.6941572986       -1.1953866105
 C          1.8518630714       -2.2732458799       -1.5218653129
 C          2.4028123596       -1.1504942901       -0.9329348552
 C          1.6598579170       -0.4466451343        0.0059896215
 C          0.3833946805       -0.8743275573        0.3351171727
 H         -0.1913008503       -0.3269621571        1.0738387842
 N          2.2133895499        0.7005068029        0.6081198079
 S          3.6704648315        0.5027715904        1.4255131458
 O          3.8015444598       -0.8375535428        1.9494838419
 O          3.7122988829        1.5781716772        2.3925391933
 C          4.9068760659        0.7934436886        0.1782331843
 C          5.8474322133       -0.1797093164       -0.0971997387
 C          6.8066646473        0.0713345089       -1.0660568040
 C          6.8081642546        1.2842447693       -1.7377814778
 C          5.8575655631        2.2518500236       -1.4476466889
 C          4.8967622086        2.0080279533       -0.4793372595
 H          4.1434665483        2.7334754357       -0.2209126080
 H          5.8618477395        3.1936853586       -1.9722863302
 H          7.5546737762        1.4770241720       -2.4920077934
 H          7.5465241185       -0.6793651779       -1.2928146748
 H          5.8025532914       -1.1094881708        0.4469549203
 H          1.5584432107        1.1986574231        1.1940134334
 H          3.3938755295       -0.8148720767       -1.1911001967
 H          2.4254445766       -2.8264407882       -2.2496623097
 H          0.1620051636       -3.5714387405       -1.6661817892
 H         -1.4971093242       -2.8287736487        1.1733667286
 C         -2.1891281619       -3.4540694306       -0.7523067086
 C         -1.9344522502       -4.9120188750       -0.5190348550
 C         -3.2785805133       -4.3270537487       -0.2087050378
 H         -4.1115970157       -4.5732218997       -0.8498150866
 H         -3.5520359215       -4.1889779837        0.8277118710
 H         -1.8477789115       -5.5642040965       -1.3749818081
 H         -1.2976135350       -5.1828234000        0.3097055891
 H         -2.2892361697       -3.1053733028       -1.7735930537
