  62
        -98.94662730
 C         -2.4876908478        0.3632322540        0.0342180328
 C         -2.2720533462        1.4998926738        0.8467282909
 C         -1.5926732748        2.6273606862        0.2018105983
 C         -1.2235312469        2.5322143485       -1.0886466121
 C         -0.4938627541        3.5852010058       -1.8776635858
 C          1.0264550847        3.5544529686       -1.6652395523
 C          1.5061447042        4.1209432596       -0.3277714172
 H          1.0513479454        5.0986440237       -0.1622329191
 H          2.5842779363        4.2705196729       -0.4134696536
 C          1.2324849430        3.2078403140        0.8751421077
 H          2.1259084613        3.1624801175        1.5029162489
 H          1.0376015235        2.1943923968        0.5167774030
 C          0.0770856189        3.6583763070        1.7695102789
 H          0.3314610537        4.6080495012        2.2465088581
 H         -0.0585398282        2.9110900394        2.5556074636
 C         -1.2630372011        3.8248065062        1.0424724785
 H         -1.2486432106        4.7250893467        0.4285330404
 H         -2.0493209977        3.9258068050        1.7951292982
 H          1.4820553386        4.1364407064       -2.4702665388
 H          1.3669515810        2.5198579888       -1.7625601255
 H         -0.8819009187        4.5735931770       -1.6285302979
 H         -0.7003707370        3.3838548183       -2.9310907627
 O         -1.4939364845        1.4403671891       -1.8516476658
 C         -2.0885374582        0.3175249192       -1.3021095068
 O         -2.2294940753       -0.6333276731       -2.0980945770
 O         -2.6221450136        1.5637039970        2.0575228579
 C         -3.0754543459       -0.8904044898        0.6564591589
 C         -2.1048125867       -2.0327317755        0.4761520857
 C         -2.4930626328       -3.3267533024        0.1555334987
 C         -1.5415575230       -4.3097302443       -0.0583067796
 C         -0.1922458547       -4.0164208564        0.0092811936
 C          0.2059478430       -2.7278149821        0.3458773455
 C         -0.7491017915       -1.7651961715        0.6211127972
 H         -0.4303376994       -0.7705136956        0.8931675083
 N          1.5729114423       -2.3728707412        0.4161874534
 S          2.0969179314       -1.1345755015       -0.6155654146
 O          1.2671971959        0.0294389742       -0.4648783824
 O          2.2397489368       -1.6639440427       -1.9577432273
 C          3.7099947750       -0.8201874592        0.0744723545
 C          4.8214739564       -1.4287816391       -0.4755115803
 C          6.0637726599       -1.1967067790        0.0938907490
 C          6.1720669974       -0.3661396311        1.1988248760
 C          5.0468874567        0.2385797299        1.7392552235
 C          3.8023212769        0.0096558431        1.1747111917
 H          2.9019205339        0.4636699121        1.5556283291
 H          5.1338796346        0.8861899221        2.5967596697
 H          7.1394428716       -0.1860109370        1.6403391753
 H          6.9404086675       -1.6630864149       -0.3258033410
 H          4.6914320461       -2.0564367646       -1.3422771181
 H          2.1689473304       -3.1740057421        0.2435896775
 H          0.5484933652       -4.7735196702       -0.2022209104
 H         -1.8559277361       -5.3115334373       -0.3097277134
 H         -3.5401004691       -3.5637471141        0.0576333798
 H         -3.1709107808       -0.6713759148        1.7308537011
 C         -4.4511695546       -1.1787304397        0.0927456848
 C         -5.4923355082       -1.8522573720        0.9350567433
 C         -5.6211057574       -0.3961559623        0.6068189336
 H         -6.3823207107       -0.0874208635       -0.0937305530
 H         -5.4264070499        0.3255927320        1.3865090872
 H         -6.1709112095       -2.5443549932        0.4595257277
 H         -5.2216862026       -2.1201865532        1.9450987992
 H         -4.4232144124       -1.4012708291       -0.9684435435
