  62
        -98.93446350
 C         -2.2968078597       -0.3022270600        0.1777650600
 C         -3.4960441196       -0.7482184594        0.7765254406
 C         -4.7120879597        0.0436808501        0.5078893596
 C         -4.6095196798        1.1417235391       -0.2642393218
 C         -5.7064786800        2.0719657284       -0.7092004730
 C         -6.5658793399        1.4740685069       -1.8350522523
 C         -6.9626178897        0.0137368671       -1.6344804004
 H         -7.4699073796       -0.3201011741       -2.5435609500
 H         -6.0602436596       -0.5911369726       -1.5276343897
 C         -7.8953834597       -0.2517538315       -0.4551955201
 H         -8.8131457197        0.3254412382       -0.5878383808
 H         -8.1623147795       -1.3112203616       -0.4856457988
 C         -7.3258401497        0.0540703603        0.9316336095
 H         -7.9936127397       -0.4060598388        1.6658779601
 H         -7.3354463999        1.1218261006        1.1329330482
 C         -5.9358203097       -0.5185835092        1.1908502503
 H         -5.9410256695       -1.5905024495        0.9625952716
 H         -5.7278842197       -0.4555674878        2.2659328002
 H         -5.9950115399        1.5382613158       -2.7646371123
 H         -7.4625938899        2.0858395567       -1.9466333930
 H         -6.3216699900        2.3575959494        0.1386962866
 H         -5.2184018401        2.9734577980       -1.0858889841
 O         -3.4241792999        1.5441399486       -0.8072059323
 C         -2.2474431298        0.8462071490       -0.6107422514
 O         -1.2531406599        1.3406630984       -1.1756365020
 O         -3.5574499095       -1.7730187985        1.5095526919
 C         -1.0224960196       -1.0951371196        0.3998383611
 C          0.0344159503       -0.2215770787        1.0280210300
 C         -0.2723041398        0.4626690128        2.2022800491
 C          0.6653123101        1.2708159536        2.8141197081
 C          1.9332423201        1.4063254731        2.2757810980
 C          2.2488210802        0.7307189517        1.1034519788
 C          1.3027791403       -0.0797771492        0.4900631998
 H          1.5764867904       -0.5919754203       -0.4165776195
 N          3.5159728802        0.8745923711        0.5170547087
 S          4.1863066803       -0.4215057499       -0.3275145597
 O          3.6378024304       -0.4555493316       -1.6596913697
 O          4.0624779505       -1.6368415989        0.4460013718
 C          5.8919845503        0.0953175402       -0.3964836703
 C          6.8013065603       -0.4304316485        0.5017108403
 C          8.1181162203       -0.0003310184        0.4517794198
 C          8.5003719302        0.9450111404       -0.4879775214
 C          7.5763473601        1.4634103792       -1.3833722920
 C          6.2587541502        1.0364658391       -1.3401732615
 H          5.5081655501        1.4032633081       -2.0209959820
 H          7.8776377501        2.1960931883       -2.1145914829
 H          9.5255780301        1.2779023205       -0.5253756518
 H          8.8394929103       -0.4037353775        1.1439749003
 H          6.4599901604       -1.1689485977        1.2091260513
 H          4.1883736801        1.3152769819        1.1294419881
 H          2.6671983500        2.0371485338        2.7537494972
 H          0.4110693200        1.7960529547        3.7226399274
 H         -1.2617452398        0.3520536632        2.6254769192
 H         -1.2880869295       -1.8822968287        1.1218508320
 C         -0.5784730195       -1.7508220012       -0.8903283681
 C          0.2650138907       -2.9888268310       -0.8540467165
 C         -1.1681995093       -3.0704596117       -1.2838968865
 H         -1.3858111393       -3.2476967731       -2.3264308362
 H         -1.8803115393       -3.5167543510       -0.6051394959
 H          1.0399352207       -3.1039900419       -1.5975322964
 H          0.5318582207       -3.3825009098        0.1153620240
 H         -0.3902406696       -1.0317983621       -1.6809323590
