  62
        -98.94004681
 C          1.9051805600        1.4942103005       -0.0881803119
 C          1.7615623401        0.1565411402       -0.5170702510
 C          2.9994574902       -0.6407395896       -0.6344686907
 C          4.1793108702       -0.0466920193       -0.3751109613
 C          5.5566174203       -0.6545812591       -0.4054074912
 C          5.8442502407       -1.5313446882        0.8237891593
 C          4.7091256209       -2.4717660382        1.2196964801
 H          4.9924887512       -2.9567799975        2.1575557404
 H          3.8103786609       -1.8848004382        1.4174595599
 C          4.3885700709       -3.5673819989        0.2056345509
 H          5.2840075510       -4.1687399588        0.0335643911
 H          3.6351727511       -4.2167033187        0.6586681615
 C          3.8539465405       -3.0930126198       -1.1477675593
 H          4.6563400203       -2.7215325401       -1.7794859797
 H          3.4389808406       -3.9674411502       -1.6575572286
 C          2.7314849404       -2.0634065900       -1.0634835497
 H          2.2516089902       -1.9879073107       -2.0467199797
 H          1.9525274506       -2.4370150196       -0.3886983793
 H          6.0406594608       -0.8701686176        1.6714767288
 H          6.7497393608       -2.1092127582        0.6309082794
 H          5.6970568002       -1.2167586996       -1.3237865109
 H          6.2652905502        0.1765852410       -0.4129500719
 O          4.2693075601        1.2592676110        0.0110405078
 C          3.1531408300        2.0541417109        0.1783328575
 O          3.3940047499        3.2170034312        0.5621742967
 H         -2.0377363701        1.9667160598       -0.2874907113
 C         -1.6661128698        1.5832865604        0.6474326289
 C         -0.3262202998        1.7005359909        0.9802224985
 C          0.1021333406        1.1975875117        2.2069102887
 C         -0.7839398592        0.5762857821        3.0646034493
 C         -2.1167400792        0.4372636717        2.7163074297
 C         -2.5576244896        0.9449781608        1.5010431895
 N         -3.9122415296        0.8494677604        1.1352393998
 S         -4.3672484498        0.2355250793       -0.3535846097
 O         -3.8065472502        1.0364136187       -1.4103672803
 O         -5.8118074898        0.1800029191       -0.2931572193
 C         -3.7163777396       -1.4251614706       -0.4004928588
 C         -4.5827270694       -2.4759154006       -0.1639839579
 C         -4.0877965591       -3.7694241405       -0.1604315072
 C         -2.7368233791       -3.9905886904       -0.3839884573
 C         -1.8812986394       -2.9248146704       -0.6131269882
 C         -2.3690492796       -1.6269144505       -0.6230431089
 H         -1.7051678998       -0.7952446805       -0.7966291796
 H         -0.8280146294       -3.0793353304       -0.7853121883
 H         -2.3488279090       -4.9971693504       -0.3805972067
 H         -4.7536893190       -4.5986791105        0.0169492135
 H         -5.6254405494       -2.2568402306        0.0006753322
 H         -4.5021516094        0.4545179307        1.8541902502
 H         -2.8094246490       -0.0549592180        3.3821019002
 H         -0.4345934189        0.1895616028        4.0101609095
 H          1.1455298806        1.2980572121        2.4750279684
 C          0.6772715899        2.3706748804        0.0737456978
 H          1.0225882899        3.2928113308        0.5645214872
 C          0.1150871695        2.7286030895       -1.2866640123
 C         -0.6190431907        4.0191499792       -1.4860039529
 C          0.7500607292        3.8377261091       -2.0677337831
 H          0.8472258690        3.7260036584       -3.1373078931
 H          1.5770899192        4.3573544595       -1.6055588236
 H         -1.4673424509        4.0287435286       -2.1542237628
 H         -0.7239398006        4.6717810698       -0.6323126233
 H         -0.2256998604        1.8616950391       -1.8424539816
 O          0.6478310202       -0.3650556801       -0.7846197104
