  62
        -98.94227422
 C         -1.8168067019       -1.1822614357       -0.1051805747
 C         -3.1661668245       -1.2317409964        0.3194677498
 C         -4.0599603972       -0.2246023780       -0.2671114300
 C         -3.5675817004        0.6476023204       -1.1659924680
 C         -4.3537097146        1.7546952187       -1.8050898654
 C         -4.2450929843        3.0529529188       -0.9929992950
 C         -4.5146677540        2.8705778038        0.5006269160
 H         -3.7254412327        2.2507676965        0.9320416836
 H         -4.4413515193        3.8553339619        0.9669343556
 C         -5.8804731865        2.2509208108        0.8278888089
 H         -6.5444318153        2.3417108677       -0.0324978968
 H         -6.3330657758        2.8138923812        1.6468838827
 C         -5.8247939333        0.7879319310        1.2720309406
 H         -5.0912841496        0.6763416962        2.0745150748
 H         -6.8017368945        0.5202331484        1.6831948187
 C         -5.4966474418       -0.2319757270        0.1739651617
 H         -5.6796978221       -1.2302293651        0.5822143287
 H         -6.1628340861       -0.0828894609       -0.6781357756
 H         -4.9486871772        3.7779192111       -1.4061377249
 H         -3.2355279527        3.4523617514       -1.1131293305
 H         -3.9531842626        1.9272382899       -2.8054994416
 H         -5.3955840706        1.4519764446       -1.8892942999
 O         -2.2692201079        0.6514860008       -1.5629943277
 C         -1.3575928695       -0.2509759157       -1.0361843147
 O         -0.1968744402       -0.1199073709       -1.4689869187
 H          1.8760562579       -2.5006257368       -0.0504118161
 C          1.6616345144       -1.7271259783        0.6709302421
 C          0.3543032376       -1.4569349559        1.0448441339
 C          0.1277951715       -0.4448920742        1.9750196671
 C          1.1727473834        0.2925067265        2.4961622705
 C          2.4728933947        0.0408359593        2.0924195867
 C          2.7108857463       -0.9743986832        1.1783502872
 N          4.0500794968       -1.1851402862        0.7419262578
 S          4.3971698228       -0.3221521277       -0.6728088878
 O          3.6547151985       -0.8631801798       -1.7916647287
 O          5.8366184904       -0.3729311675       -0.8183458868
 C          3.8748912590        1.3321813418       -0.2914065297
 C          4.7859212596        2.1879907158        0.2968039843
 C          4.3802152086        3.4690490119        0.6333500955
 C          3.0754925445        3.8661787703        0.3812307691
 C          2.1752354959        2.9931981916       -0.2101799375
 C          2.5723340581        1.7097396310       -0.5528869294
 H          1.8879355380        1.0087704244       -1.0075619576
 H          1.1587540662        3.2968321590       -0.4051072631
 H          2.7563051968        4.8619803250        0.6461897294
 H          5.0779464415        4.1511380230        1.0918901674
 H          5.7881919509        1.8318884306        0.4704607104
 H          4.2361404567       -2.1603773460        0.5417188532
 H          3.2994873975        0.6169201242        2.4748617372
 H          0.9751107319        1.0749323538        3.2124926758
 H         -0.8907082156       -0.2370507792        2.2741675464
 C         -0.8301103391       -2.1860685084        0.4642453979
 H         -1.3644053986       -2.6959991672        1.2793935348
 C         -0.4617303975       -3.2105176247       -0.5884438541
 C         -0.0352792710       -4.5890282883       -0.1821614135
 C         -1.3758130975       -4.3752027585       -0.8167329346
 H         -1.5297684654       -4.7189280416       -1.8286540095
 H         -2.2556732070       -4.4422012093       -0.1939024948
 H         -0.0040879067       -4.8116586508        0.8737449386
 H          0.7316790591       -5.0830658265       -0.7601255302
 H          0.0070144014       -2.7653317148       -1.4605692997
 O         -3.5975760488       -2.0724979530        1.1529079945
