  62
        -98.94892308
 C         -2.2333626034       -0.8555826075        0.0793114456
 C         -1.5865214303       -0.1180190137       -0.9410971445
 C         -1.9908423722        1.2876065948       -1.0738486855
 C         -2.8966626651        1.7950649543       -0.2187812607
 C         -3.4045599014        3.2075173827       -0.2415775223
 C         -2.5803428365        4.1292641890        0.6661552456
 C         -1.0703404270        4.0284295113        0.4494695750
 H         -0.5981635911        4.7653196864        1.1040460598
 H         -0.7172917286        3.0472264854        0.7759076745
 C         -0.6152843704        4.2652956896       -0.9972110181
 H          0.2623004877        4.9151761567       -0.9816512827
 H         -1.3961851448        4.7846162629       -1.5551446662
 C         -0.2115310378        2.9896914023       -1.7392701202
 H          0.4582946340        2.4069110567       -1.1017776249
 H          0.3460876267        3.2755434731       -2.6354293943
 C         -1.3676454329        2.0845993355       -2.1848987286
 H         -2.1231119177        2.6797798349       -2.7032847715
 H         -0.9644745485        1.3508671756       -2.8891153823
 H         -2.9053861900        5.1578633140        0.4956290804
 H         -2.7933793480        3.8740734421        1.7070358957
 H         -3.3795792751        3.5755872179       -1.2656561047
 H         -4.4390472266        3.2023552806        0.1075940322
 O         -3.4506469884        1.0718372644        0.7894778642
 C         -3.1236112823       -0.2617541101        0.9710461354
 O         -3.6853783363       -0.8031888700        1.9474949447
 O         -0.7294539452       -0.6154743166       -1.7171422220
 C         -1.9126218012       -2.3301599859        0.2645748721
 C         -0.4219066253       -2.4924730081        0.4240645729
 C          0.3451712378       -3.3931483043       -0.3033256575
 C          1.7231048601       -3.4148501799       -0.1684640262
 C          2.3647136154       -2.5278953511        0.6771357835
 C          1.6020124352       -1.6464473521        1.4303867379
 C          0.2231588522       -1.6517985804        1.3232077465
 H         -0.3613284396       -0.9474360633        1.9035645672
 N          2.2713427977       -0.6700983284        2.2295216679
 S          2.2794585833        0.8130992101        1.4135295978
 O          3.0215341844        1.7235247820        2.2609683867
 O          0.9362061872        1.2391646872        1.0846115551
 C          3.2116979814        0.4308340477       -0.0487458318
 C          2.5579724658        0.0095239593       -1.1896798339
 C          3.3159292807       -0.3307790680       -2.2999405486
 C          4.6987842515       -0.2496321828       -2.2494881246
 C          5.3380810465        0.1740832901       -1.0936391509
 C          4.5890683740        0.5158953980        0.0201218132
 H          5.0369600626        0.8533838154        0.9403442378
 H          6.4137767141        0.2359664088       -1.0567883349
 H          5.2810052187       -0.5190018293       -3.1166720455
 H          2.8134328411       -0.6634454333       -3.1938787424
 H          1.4801441710       -0.0559168926       -1.2040476683
 H          1.8173852002       -0.5230935138        3.1222294799
 H          3.4389642649       -2.5032300643        0.7604710507
 H          2.3051925292       -4.1133359843       -0.7492455201
 H         -0.1363461968       -4.0658620878       -0.9940200678
 H         -2.4030345173       -2.6358378419        1.2003615354
 C         -2.4913264605       -3.1348021822       -0.8806433820
 C         -2.8850913255       -4.5660385425       -0.6754957471
 C         -3.9398870004       -3.5142354813       -0.8386058923
 H         -4.5067185753       -3.4868307876       -1.7570081145
 H         -4.5053852314       -3.2117353312        0.0310673458
 H         -2.7324889946       -5.2645717390       -1.4841258112
 H         -2.7405546472       -4.9884650361        0.3073073655
 H         -2.0784451802       -2.8468211769       -1.8405897399
