  62
        -98.93618978
 C          1.1649150395       -1.0968682387       -0.1971984616
 C          1.7157288437       -0.0263164026       -0.9444919348
 C          2.8208800842        0.7088976483       -0.3169036749
 C          3.1888958865        0.4038933823        0.9398079583
 C          4.2489469023        1.0891241971        1.7614711004
 C          5.6969517089        0.9692916814        1.2483796446
 C          6.1524493029        2.1348455069        0.3615927770
 H          7.1831843402        2.3885179816        0.6174321544
 H          5.5468910050        3.0111884074        0.5965478410
 C          6.1167089404        1.8782416317       -1.1479613732
 H          6.9794487807        1.2688359743       -1.4264332739
 H          6.2174306806        2.8413745269       -1.6528484305
 C          4.8679119965        1.1713200142       -1.6748884752
 H          4.9129899091        0.1096751459       -1.4203634419
 H          4.8784972535        1.2284749670       -2.7650787839
 C          3.5356916296        1.7367240981       -1.1449394689
 H          2.8739553803        1.9794454701       -1.9790614006
 H          3.7028554692        2.6448432474       -0.5670187466
 H          5.8202139824        0.0208795564        0.7261104258
 H          6.3411009005        0.9395838487        2.1286044922
 H          4.1830003707        0.6370568386        2.7534672083
 H          3.9838485833        2.1446767038        1.8603862561
 O          2.5759348153       -0.5750862909        1.6587412895
 C          1.5552921441       -1.3475051213        1.1189438106
 O          1.0958152174       -2.1937111928        1.9081661534
 O          1.2922836128        0.3087838218       -2.0836413593
 C          0.0259271381       -1.8789348225       -0.8244533546
 C         -1.1609055977       -1.9092860066        0.1060607543
 C         -1.8845626052       -3.0526813309        0.4165945464
 C         -2.9814267900       -2.9762664195        1.2583162678
 C         -3.3943416319       -1.7664351020        1.7852781004
 C         -2.6736783073       -0.6162432004        1.4826254815
 C         -1.5680141388       -0.6999465217        0.6543585090
 H         -0.9932725183        0.1917103982        0.4554969993
 N         -3.0500234132        0.6355825246        1.9914072619
 S         -2.8096401712        2.0062740610        1.0675983195
 O         -1.4207557146        2.3944151729        1.0881326037
 O         -3.7390012275        2.9714932467        1.6160742795
 C         -3.3206876721        1.5457595767       -0.5792146964
 C         -4.6594855736        1.2622623427       -0.7713415154
 C         -5.0880919569        0.8551346441       -2.0235726994
 C         -4.1734435527        0.7327002054       -3.0588826357
 C         -2.8351812337        1.0276508913       -2.8527036817
 C         -2.4010907336        1.4396038519       -1.6021602079
 H         -1.3633420235        1.6699097726       -1.4159112351
 H         -2.1173866243        0.9334533073       -3.6521786112
 H         -4.5041291942        0.4081610960       -4.0328044092
 H         -6.1295504675        0.6307258133       -2.1879307466
 H         -5.3415074372        1.3780806284        0.0551858086
 H         -3.9274972839        0.6540550793        2.4890551206
 H         -4.2531463090       -1.7106173141        2.4362371030
 H         -3.5285751458       -3.8741683735        1.5021740777
 H         -1.5798018664       -4.0069126829        0.0199443218
 H         -0.2642489379       -1.2683308948       -1.6974010477
 C          0.4142658917       -3.2453169419       -1.3692834196
 C          1.8397394462       -3.5749351645       -1.6947792904
 C          1.1559927279       -4.2567442294       -0.5496202834
 H          0.8918563723       -5.2984110268       -0.6601474328
 H          1.4304671021       -3.9777836560        0.4551666403
 H          2.0440590686       -4.1441761163       -2.5892872804
 H          2.5897282456       -2.8301160424       -1.4696191281
 H         -0.3308406405       -3.6327603420       -2.0571507147
