  62
        -98.94073071
 C         -1.1777521585       -1.2663235831       -0.1922603917
 C         -2.1744173601       -1.0629330030        0.7944167603
 C         -3.0372110195        0.1249650663        0.6534945149
 C         -2.8271149296        0.9518296860       -0.3872254616
 C         -3.6042326416        2.1832955445       -0.7709064061
 C         -4.9562674240        1.8481980675       -1.4216172545
 C         -5.7511289718        0.7480865321       -0.7230988962
 H         -6.6309496096        0.5343634052       -1.3359055667
 H         -5.1512230520       -0.1631989467       -0.6909896445
 C         -6.2348485416        1.0873836667        0.6849149147
 H         -6.8609515501        0.2567314280        1.0209329522
 H         -6.8640405530        1.9793523300        0.6425639046
 C         -5.1424386231        1.3116685385        1.7329471113
 H         -5.6255176977        1.2916454020        2.7142943975
 H         -4.6967000120        2.2973665987        1.6304374244
 C         -4.0564814003        0.2405597801        1.7609490590
 H         -3.4765023076        0.3562674784        2.6844507224
 H         -4.5283762355       -0.7453316144        1.8414800855
 H         -5.5540418877        2.7602582410       -1.4649286631
 H         -4.7663283276        1.5205494129       -2.4466333734
 H         -3.7442251717        2.8255695618        0.0935519051
 H         -2.9969756578        2.7258034491       -1.4985154200
 O         -1.8453607596        0.7268064666       -1.3034298638
 C         -0.9972375531       -0.3609758033       -1.2374449034
 O         -0.1571473192       -0.3940629622       -2.1588202766
 O         -2.3520462715       -1.8543152696        1.7590451901
 C         -0.3008775500       -2.5000363474       -0.0448701529
 C          1.0462447228       -2.0928879841        0.4985199050
 C          1.3495362176       -2.2702318978        1.8439913247
 C          2.5596689815       -1.8393942527        2.3594177941
 C          3.4870475224       -1.2105112786        1.5470698998
 C          3.1859355268       -1.0191739219        0.2053849974
 C          1.9835027164       -1.4720424221       -0.3149453172
 H          1.7523777786       -1.2959318745       -1.3541785460
 N          4.0985281055       -0.3212440716       -0.6211014530
 S          4.2763419626        1.2977497300       -0.2227725970
 O          4.8890521831        1.9222319330       -1.3729213556
 O          5.0092860758        1.3891454024        1.0147894420
 C          2.6167715175        1.9101409516        0.0103734945
 C          2.0372751275        1.8248185390        1.2604056526
 C          0.7286564680        2.2495230147        1.4206250347
 C          0.0287212352        2.7552198610        0.3365819111
 C          0.6241399191        2.8326732759       -0.9124061940
 C          1.9283579207        2.3985428033       -1.0813134066
 H          2.4243622863        2.4413480214       -2.0378564203
 H          0.0728674677        3.2152357680       -1.7562895958
 H         -0.9895333134        3.0869861200        0.4657848809
 H          0.2575482788        2.1821283468        2.3883376968
 H          2.6168216742        1.4371790751        2.0820532304
 H          3.8520756218       -0.3856697717       -1.5998790002
 H          4.4235553127       -0.8424935759        1.9339751697
 H          2.7811060938       -1.9885810363        3.4053273311
 H          0.6180841566       -2.7348100349        2.4893743698
 H         -0.7981314649       -3.1161126510        0.7158979327
 C         -0.1929146265       -3.3066188006       -1.3230418528
 C          0.2866052915       -4.7242727892       -1.2484875673
 C         -1.1502547159       -4.4342783632       -1.5600361512
 H         -1.5065862071       -4.6047066818       -2.5649478398
 H         -1.8880781896       -4.6335800246       -0.7965946419
 H          0.9198977690       -5.0966450099       -2.0390515472
 H          0.5237090473       -5.1198692089       -0.2724737135
 H          0.0992013681       -2.7207926739       -2.1847776510
