  62
        -98.94374721
 C         -1.5090236341       -1.5877235633       -0.0771513465
 C         -1.3712314454       -0.2625401366        0.4072595043
 C         -2.6248991438        0.4070455331        0.7950185666
 C         -3.7852770639       -0.2694738937        0.7382188238
 C         -5.1346048559        0.3088890705        1.0498482013
 C         -5.7955496026        0.8829556756       -0.2112302433
 C         -4.8847875568        1.8081824523       -1.0184060484
 H         -4.0569892531        1.2248527580       -1.4282845939
 H         -5.4662919450        2.1780652228       -1.8657732083
 C         -4.3238188228        2.9960276313       -0.2243651645
 H         -4.4171841233        3.8978947258       -0.8331207330
 H         -4.9178093220        3.1516233357        0.6769328676
 C         -2.8477066437        2.8654961185        0.1562960181
 H         -2.5066356703        3.8398934851        0.5148449143
 H         -2.2620074341        2.6171020772       -0.7319668601
 C         -2.5254379627        1.8367466178        1.2471665831
 H         -1.4824075036        1.9805594140        1.5442934316
 H         -3.1615063917        2.0108356502        2.1172304046
 H         -6.6957933710        1.4238966571        0.0862102471
 H         -6.0962083653        0.0519271187       -0.8537885613
 H         -5.0261714356        1.0871545874        1.8026885477
 H         -5.7658776006       -0.4861488785        1.4504572120
 O         -3.8660636047       -1.5661486220        0.3419774634
 C         -2.7389563694       -2.2505184905       -0.0823777451
 O         -2.9566338441       -3.4308669157       -0.4230551087
 O         -0.2748914690        0.3411761815        0.5151420666
 C         -0.3102839878       -2.3850561737       -0.5622851782
 C          0.8475123001       -2.2058831547        0.3870153427
 C          0.7370515808       -2.7131611918        1.6791441213
 C          1.7634425251       -2.5550714504        2.5897846396
 C          2.9187699243       -1.8820777359        2.2331296023
 C          3.0387368755       -1.3740086108        0.9452457007
 C          2.0112988913       -1.5454301179        0.0282955581
 H          2.1270865479       -1.1353918866       -0.9601984331
 N          4.2046758439       -0.7026019360        0.5534666600
 S          4.1744784881        0.5236470166       -0.5758279038
 O          3.9726916883       -0.0205301364       -1.8962597342
 O          5.4357446805        1.2084193934       -0.3732098342
 C          2.8425224207        1.6266165479       -0.1437678616
 C          1.9769551195        2.0556780559       -1.1265468269
 C          0.9881431951        2.9674191672       -0.7982900394
 C          0.8814841819        3.4298362566        0.5023418408
 C          1.7557974009        2.9848437582        1.4805384483
 C          2.7494368860        2.0771648464        1.1568658636
 H          3.4462014174        1.7194569316        1.8978405056
 H          1.6622586519        3.3390260040        2.4950174836
 H          0.1074822474        4.1372872231        0.7560352833
 H          0.3007690244        3.3082314234       -1.5567653217
 H          2.0882765921        1.6639394120       -2.1251487216
 H          4.8658831133       -0.5176783897        1.2926442201
 H          3.7202005450       -1.7508775220        2.9441695557
 H          1.6623536462       -2.9523150131        3.5886607463
 H         -0.1725210473       -3.2263860094        1.9617032615
 H         -0.6277182910       -3.4399368070       -0.5144241803
 C          0.0638701774       -2.1075769432       -2.0108455792
 C         -0.9840103774       -1.7708114188       -3.0280332786
 C          0.0094975950       -0.7331964616       -2.6039483720
 H          0.7871281942       -0.4499837571       -3.2991008849
 H         -0.3227866387        0.0723565319       -1.9681666937
 H         -0.8967772935       -2.1977497270       -4.0158694833
 H         -2.0033348869       -1.6773044999       -2.6819221337
 H          0.8728533411       -2.7485766723       -2.3494319951
