  62
        -98.93587708
 C          1.9301170414        0.9719423493        0.5845317566
 C          2.2398706317        0.2861123306       -0.6132523963
 C          2.6409387935       -1.1192735374       -0.4621740678
 C          2.6427001089       -1.6842528423        0.7583773084
 C          2.9578364008       -3.1204533871        1.0855656624
 C          4.4021684379       -3.5833466842        0.8119116777
 C          4.6079370290       -4.2378447791       -0.5597650918
 H          5.2789620899       -5.0913474896       -0.4438652105
 H          3.6523841027       -4.6343828841       -0.9048823046
 C          5.2102609723       -3.3390996461       -1.6437894232
 H          6.2852989592       -3.2470034352       -1.4738375027
 H          5.0703784827       -3.8365270360       -2.6058137458
 C          4.6381221087       -1.9240554869       -1.7305292094
 H          5.0287868474       -1.3184303617       -0.9093877989
 H          5.0006732194       -1.4650572847       -2.6522948124
 C          3.0991971923       -1.8480772386       -1.6919509137
 H          2.7310661227       -1.2753119011       -2.5456044481
 H          2.6610200204       -2.8442556441       -1.7321239504
 H          4.6477160151       -4.3181916539        1.5802130586
 H          5.0825517944       -2.7420081092        0.9402797354
 H          2.7439569168       -3.2274236472        2.1511438848
 H          2.2596145042       -3.7611739834        0.5417713736
 O          2.3021667577       -0.9960962237        1.8841265981
 C          1.9447838156        0.3400510229        1.8261640130
 O          1.6679583845        0.8482127001        2.9339897392
 H         -0.5835650299        0.7553936764        0.4206129481
 C         -0.7243089854        1.6007329902       -0.2386285852
 C          0.2633738707        2.5735208362       -0.3264789475
 C          0.0557116072        3.6554960481       -1.1726218382
 C         -1.1083251204        3.7485450890       -1.9159688774
 C         -2.0864933094        2.7761758923       -1.8283768167
 C         -1.8869580857        1.6870429375       -0.9857171034
 N         -2.8421242322        0.6602273109       -0.9105848863
 S         -2.9449844418       -0.2941517452        0.4725664663
 O         -3.0023016867        0.5385728206        1.6540823217
 O         -1.9023494976       -1.2901665651        0.4348280480
 C         -4.5280734863       -1.0668826256        0.1942394489
 C         -5.6600527718       -0.5127557531        0.7618920863
 C         -6.8911425662       -1.0989361446        0.5127304612
 C         -6.9696582278       -2.2214603954       -0.2978017259
 C         -5.8248668227       -2.7673951455       -0.8592921667
 C         -4.5907619249       -2.1866466869       -0.6133851269
 H         -3.6729110574       -2.5789601657       -1.0195674842
 H         -5.8887806667       -3.6419912432       -1.4863259650
 H         -7.9286091806       -2.6756918874       -0.4906901235
 H         -7.7820017786       -0.6788785761        0.9509457818
 H         -5.5485892378        0.3542649375        1.3929869418
 H         -3.7515021686        0.9324762140       -1.2571240338
 H         -2.9917214747        2.8488208065       -2.4113465068
 H         -1.2564809362        4.5934389283       -2.5712473465
 H          0.8066914539        4.4243526925       -1.2518886226
 C          1.4978986422        2.4245153852        0.5312962194
 H          1.2250190551        2.6982405266        1.5623731845
 C          2.6509280479        3.2990122211        0.0810300600
 C          2.7895902991        4.6990096282        0.5967214178
 C          3.7300828395        3.6312224101        1.0658693117
 H          4.7533394578        3.6537957207        0.7224453734
 H          3.6146425379        3.2498408483        2.0704992830
 H          3.1719343507        5.4583909676       -0.0685972937
 H          2.0418923955        5.0526315912        1.2906901435
 H          2.9502490591        3.0937323822       -0.9403188063
 O          2.1809010817        0.8169307770       -1.7535188233
