  62
        -98.94467708
 C         -1.8401665588       -0.0360315595        0.0462299512
 C         -2.8024617089       -0.9490076598        0.5393767903
 C         -4.1469951088       -0.4043872698        0.7672511011
 C         -4.3792284586        0.8975694905        0.5182436526
 C         -5.7150560884        1.5685379406        0.6513543236
 C         -6.4954338586        1.5172896523       -0.6697072263
 C         -6.5502191090        0.1263914730       -1.3018035579
 H         -7.1491850191        0.2062975442       -2.2116128677
 H         -5.5426975591       -0.1667492068       -1.6058518184
 C         -7.1419092991       -0.9608898979       -0.3938863190
 H         -7.7064439689       -0.4993791287        0.4171089316
 H         -7.8440625593       -1.5601522671       -0.9773562696
 C         -6.1111402192       -1.9273139388        0.1922818397
 H         -5.4821202494       -2.3221404980       -0.6095396908
 H         -6.6483966593       -2.7715324191        0.6325395688
 C         -5.1981248789       -1.3481885302        1.2802010602
 H         -5.8036303287       -0.8692059309        2.0522232409
 H         -4.6552565390       -2.1814412108        1.7359634792
 H         -6.0185992686        2.1971542730       -1.3796347256
 H         -7.5099137385        1.8755515023       -0.4854762258
 H         -5.5502266081        2.6119056603        0.9253978948
 H         -6.2843052884        1.0811439899        1.4404985431
 O         -3.4235979184        1.7492760808        0.0655322435
 C         -2.1336025686        1.3066899409       -0.1911676172
 O         -1.3619566085        2.1885372212       -0.6131727564
 O         -2.5466313892       -2.1592224702        0.7817904589
 C         -0.4359100090       -0.5364339194       -0.2391868696
 C          0.5761029313        0.2454977694        0.5597499311
 C          0.3411737016        0.4597928779        1.9164252414
 C          1.2282447318        1.1888204869        2.6824846321
 C          2.3815309019        1.7059484273        2.1177740325
 C          2.6342558816        1.4854967988        0.7705906522
 C          1.7385773813        0.7526496498        0.0013943715
 H          1.9576665511        0.6111466110       -1.0434474687
 N          3.7977926116        1.9915520292        0.1692678126
 S          4.6665540313        1.0083506802       -0.8657437286
 O          6.0090035614        1.5480297299       -0.8398093182
 O          4.0363647410        0.9522661618       -2.1598237486
 C          4.6331420110       -0.5979773007       -0.0898635204
 C          5.2030695812       -0.7286144022        1.1616054093
 C          5.1477616310       -1.9572321229        1.7983940379
 C          4.5255838907       -3.0294307521        1.1768761568
 C          3.9654397006       -2.8839617405       -0.0823696429
 C          4.0170545707       -1.6563715098       -0.7237336615
 H          3.5907315006       -1.4994411686       -1.7009086113
 H          3.4858544203       -3.7202873899       -0.5658575238
 H          4.4781794606       -3.9845986526        1.6756753457
 H          5.5859461712       -2.0753299041        2.7762582577
 H          5.6883648515        0.1219606772        1.6118549402
 H          4.4061490018        2.5000263684        0.7940033531
 H          3.0729250621        2.2838851365        2.7118864031
 H          1.0239079920        1.3550830358        3.7293775223
 H         -0.5592263984        0.0561230976        2.3589411711
 H         -0.4216082091       -1.5789678998        0.1130691392
 C         -0.1753863492       -0.5229285878       -1.7307893896
 C          0.7070334405       -1.5582303773       -2.3581051409
 C         -0.7741728596       -1.6024477167       -2.5803717007
 H         -1.1621509696       -1.3383251255       -3.5528260604
 H         -1.3432416796       -2.3700636572       -2.0763068915
 H          1.3432856804       -1.2615609165       -3.1790639107
 H          1.1369439204       -2.3036114681       -1.7065900418
 H         -0.1594366991        0.4806028727       -2.1423190085
