  62
        -98.93712498
 C          1.8188221301        0.5129476004        1.1210948143
 C          3.0499961378        0.9941329094        0.6086246592
 C          4.0812267719       -0.0287855853        0.3686042396
 C          3.8258830919       -1.3236286839        0.6225810309
 C          4.7810800938       -2.4713645480        0.4373431026
 C          4.8333139800       -3.0154499304       -0.9969240926
 C          5.5431379209       -2.1156033834       -2.0094358439
 H          6.5267580747       -1.8431485789       -1.6253971685
 H          5.6995312833       -2.7101172330       -2.9118894996
 C          4.7650975299       -0.8463740373       -2.3842285303
 H          3.7179491031       -0.9618003241       -2.0944176724
 H          4.7828740305       -0.7153844343       -3.4686619753
 C          5.3126606484        0.4389598322       -1.7636252953
 H          6.3139758668        0.6360627206       -2.1531635233
 H          4.6665033229        1.2677226335       -2.0643166714
 C          5.3792157842        0.4220149143       -0.2309799692
 H          6.1955729870       -0.2180474245        0.1029734536
 H          5.5688432593        1.4415666881        0.1138251272
 H          3.8127141405       -3.2092104123       -1.3353137539
 H          5.3591752229       -3.9724751820       -0.9633262295
 H          5.7814336365       -2.1703242681        0.7498611399
 H          4.4371724208       -3.2714918467        1.0964007694
 O          2.6295201443       -1.7464724870        1.1104020968
 C          1.6023847115       -0.8486873257        1.3512056549
 O          0.5556380178       -1.3764888778        1.7747635879
 H         -2.0712929967        1.2283579142        1.3502142810
 C         -1.6528630288        1.3934706600        0.3662993138
 C         -0.2776587368        1.5089761020        0.2188789434
 C          0.2416160355        1.6982431466       -1.0576575051
 C         -0.5951078762        1.7600544192       -2.1573159957
 C         -1.9659681559        1.6446450954       -2.0066086381
 C         -2.4960409770        1.4620659993       -0.7368480936
 N         -3.8961934881        1.3485777396       -0.5951257957
 S         -4.6179499720       -0.0520864935       -1.1688919491
 O         -4.0883058139       -0.3424783946       -2.4755092690
 O         -6.0424904042        0.1692946643       -1.0817233455
 C         -4.1380543855       -1.3072768923        0.0042453748
 C         -5.0685143395       -1.7753017824        0.9112473353
 C         -4.6647615390       -2.6867481225        1.8735005084
 C         -3.3393895067       -3.0917860089        1.9271659096
 C         -2.4145411083       -2.6078088254        1.0140361784
 C         -2.8179795600       -1.7122699564        0.0361849603
 H         -2.1214527925       -1.3226478526       -0.6894654365
 H         -1.3753740509       -2.8889833050        1.0779110135
 H         -3.0186867852       -3.7860193557        2.6878980312
 H         -5.3794232014       -3.0689249828        2.5847099845
 H         -6.0836815554       -1.4191310859        0.8412288817
 H         -4.2217184023        1.5225958043        0.3459707135
 H         -2.6300326582        1.6749101328       -2.8545528379
 H         -0.1762055224        1.9035658440       -3.1420017604
 H          1.3096653735        1.8001502374       -1.1791195758
 C          0.6282956453        1.4097045695        1.4207122367
 H          0.0642391602        0.8909903828        2.2126031309
 C          1.0247566116        2.7739639640        1.9681152364
 C          0.9177019500        4.0400027842        1.1786734227
 C         -0.0300119771        3.7847021435        2.3094724351
 H          0.0789722138        4.3573229045        3.2180204627
 H         -1.0523200264        3.5467240028        2.0568948133
 H          1.6981574302        4.7745516661        1.3037494710
 H          0.5375421377        3.9810978808        0.1707359998
 H          1.8667832910        2.7043847401        2.6486401922
 O          3.3008126457        2.1994402969        0.3573617679
