  62
        -98.94433590
 C          1.8348460015        1.0716179104       -0.1590720993
 C          2.3382526853       -0.0624763738       -0.8403217678
 C          3.8025100616       -0.1960277215       -0.8613900125
 C          4.5605031366        0.7458017874       -0.2706617367
 C          6.0573131645        0.7031937538       -0.1700047207
 C          6.5067180613        0.0062015626        1.1219531338
 C          5.8197826589       -1.3366586311        1.3708225837
 H          6.2360575936       -1.7489991911        2.2924920536
 H          4.7551547474       -1.1664272506        1.5466864912
 C          5.9863717175       -2.3552737184        0.2346045240
 H          6.8202705947       -2.0640513594       -0.4051134198
 H          6.2342793348       -3.3264044395        0.6681788096
 C          4.7365446105       -2.5574422332       -0.6243230598
 H          4.8915007639       -3.4423120439       -1.2476109734
 H          3.8759624436       -2.7580691375        0.0192064553
 C          4.3757693295       -1.3966582722       -1.5598963044
 H          5.2477578112       -1.1184923398       -2.1554516518
 H          3.5934344288       -1.7488388293       -2.2388614003
 H          7.5876230999       -0.1388199002        1.0778583161
 H          6.2861876378        0.6648795571        1.9651043949
 H          6.4597275281        0.1813764658       -1.0360121854
 H          6.4315135246        1.7282959728       -0.1684652909
 O          4.0395489543        1.8324301745        0.3545077456
 C          2.6690755428        2.0172643724        0.4366935776
 O          2.3229845235        3.0422532549        1.0579108336
 O          1.6070285813       -0.9204003080       -1.4007009916
 C          0.3352684937        1.2970467245       -0.0723927832
 C         -0.3271454496        0.0965372784        0.5567034198
 C          0.1759685682       -0.3822948187        1.7648042623
 C         -0.3758304592       -1.4928388715        2.3711062760
 C         -1.4521214725       -2.1435483972        1.7929826552
 C         -1.9689317139       -1.6683252762        0.5945068577
 C         -1.4139879314       -0.5477051713       -0.0119560559
 H         -1.8241564843       -0.2131820248       -0.9498231165
 N         -3.0535621643       -2.3134402747       -0.0134503821
 S         -4.2041521633       -1.4520909429       -0.8547487311
 O         -5.3721250162       -2.3074523072       -0.8405611945
 O         -3.7165907275       -1.0826358485       -2.1595099338
 C         -4.5162544073        0.0130080780        0.1162749234
 C         -4.5402988302        1.2429229550       -0.5073723208
 C         -4.7947137187        2.3765017773        0.2482112528
 C         -5.0182104248        2.2603715548        1.6109695344
 C         -4.9966958371        1.0164228067        2.2232401894
 C         -4.7463280221       -0.1198707382        1.4715737595
 H         -4.7313783050       -1.0986473488        1.9221166627
 H         -5.1731238477        0.9292358585        3.2831908582
 H         -5.2114474603        3.1438902875        2.1987629947
 H         -4.8146097545        3.3434039783       -0.2289091615
 H         -4.3550129398        1.2884728851       -1.5681337254
 H         -3.4495916644       -3.0814329683        0.5069141602
 H         -1.8794386440       -3.0186606634        2.2583435026
 H          0.0326636680       -1.8566731068        3.3018992508
 H          1.0188632922        0.1256706934        2.2141332394
 H          0.1951354482        2.1572516942        0.5984516665
 C         -0.2101334818        1.6534413655       -1.4389752692
 C         -1.4169260561        2.5312955811       -1.5667080687
 C         -0.0627004820        3.0625248937       -1.9264202722
 H          0.1697686712        3.2269004559       -2.9679455179
 H          0.4064854901        3.7693843358       -1.2574190000
 H         -2.1136105535        2.3276806488       -2.3659036756
 H         -1.8763848385        2.8844267446       -0.6560370720
 H         -0.0775060401        0.8576924664       -2.1636411510
