  62
        -98.93550638
 C          2.5475844898        0.1645368713        0.6914403400
 C          2.2229418788       -0.3864104278       -0.5722619775
 C          1.9888038503       -1.8408728087       -0.6098865012
 C          2.0063146716       -2.5462795254        0.5328932005
 C          1.8042982642       -4.0281633552        0.7262293187
 C          0.6637014655       -4.6950188307       -0.0557927865
 C         -0.5550743582       -3.8024468789       -0.3353786518
 H         -1.4597414809       -4.3320403381       -0.0292896929
 H         -0.5068986628       -2.8821661618        0.2508303081
 C         -0.7006619700       -3.4433464360       -1.8160585950
 H         -1.7332292624       -3.1374335624       -2.0025519965
 H         -0.5030239560       -4.3347117439       -2.4170745238
 C          0.1888143542       -2.2992001699       -2.3001971576
 H          0.0819422952       -2.2260169832       -3.3859007688
 H         -0.1767729986       -1.3565914835       -1.8837037347
 C          1.6817711497       -2.4247901232       -1.9588338280
 H          2.0154976710       -3.4580236125       -2.0310821158
 H          2.2397162963       -1.8253121974       -2.6838528930
 H          0.3498723733       -5.5638954428        0.5251589357
 H          1.0460577460       -5.0720520764       -1.0036860848
 H          2.7446694914       -4.5341920205        0.4883957470
 H          1.6339503444       -4.1510540547        1.7984260986
 O          2.2613849002       -1.9655056904        1.7392049013
 C          2.5251628001       -0.6128589610        1.8498766842
 O          2.7195749382       -0.2246128117        3.0208422388
 H          0.1935552395        1.1850808602        1.1344622895
 C          0.3630362626        2.0020831376        0.4482425560
 C          1.6656306562        2.4102644721        0.1863021498
 C          1.8669411566        3.4674690970       -0.6897913488
 C          0.7869658911        4.0760461640       -1.3068932921
 C         -0.5021654230        3.6296558355       -1.0846475865
 C         -0.7141511059        2.5751766172       -0.2034202227
 N         -2.0149123980        2.0827388224        0.0519799331
 S         -2.2684962072        0.4327009510       -0.2343775941
 O         -1.4395924094       -0.3525702256        0.6422755370
 O         -2.1559409605        0.1666336073       -1.6524451995
 C         -3.9741656110        0.2981003157        0.2651836039
 C         -4.9701020795        0.2627624646       -0.6915334193
 C         -6.2923471047        0.1943850464       -0.2807041374
 C         -6.5937717039        0.1658109687        1.0723717688
 C         -5.5825097519        0.2006956256        2.0212977228
 C         -4.2589440941        0.2680432955        1.6166012254
 H         -3.4392176514        0.2895945637        2.3160605389
 H         -5.8197293684        0.1752394359        3.0726261827
 H         -7.6229603744        0.1133542205        1.3905239803
 H         -7.0802488406        0.1641709371       -1.0158693276
 H         -4.6871061989        0.2797808941       -1.7317285982
 H         -2.7084666192        2.5936393132       -0.4818274775
 H         -1.3389324913        4.0852537269       -1.5933892636
 H          0.9550271694        4.8952653836       -1.9897702129
 H          2.8677170491        3.8003486443       -0.9111701865
 C          2.7723476611        1.6560790514        0.8830764933
 H          2.6526865594        1.8174442390        1.9679579373
 C          4.1682078334        2.1438297074        0.5255273846
 C          5.3324982903        1.2003826795        0.4888188122
 C          4.8231075849        1.8110763510       -0.7802195979
 H          5.4248842866        2.5700251921       -1.2588679142
 H          4.2708932934        1.1898684378       -1.4669269729
 H          6.2788331502        1.5392840052        0.8830814079
 H          5.1325315753        0.1537562182        0.6687673718
 H          4.3679992625        3.1306181965        0.9320141859
 O          2.1474004256        0.2881438729       -1.6325895909
