  62
        -98.94365042
 C         -1.8026606321       -0.3624191625       -0.2885714571
 C         -2.9749925855       -0.7302310098       -0.9901178421
 C         -4.2298264938       -0.6488755383       -0.2310142512
 C         -4.1944693315       -0.2599075280        1.0569538429
 C         -5.4019246157       -0.0821345209        1.9304321084
 C         -5.9360504479        1.3551782816        1.8548689130
 C         -6.1118465179        1.8749423856        0.4280699051
 H         -6.5204563344        2.8853774927        0.4978451367
 H         -5.1306482839        1.9569206866       -0.0448522242
 C         -7.0271396476        1.0133292611       -0.4529601811
 H         -7.7073959178        1.6700029491       -0.9993981698
 H         -7.6388398126        0.3624342343        0.1728073207
 C         -6.2915494650        0.1683511038       -1.4946523765
 H         -7.0312630325       -0.2278294809       -2.1955850764
 H         -5.6080853172        0.8025774107       -2.0648363603
 C         -5.4976221077       -1.0238356706       -0.9458788713
 H         -6.1397376899       -1.6280881962       -0.3016348288
 H         -5.1902645038       -1.6379623168       -1.7975960829
 H         -6.8925664807        1.3956049439        2.3791537163
 H         -5.2351577098        2.0123678617        2.3745525032
 H         -5.1159079078       -0.3002926133        2.9606998672
 H         -6.1740466502       -0.7842240962        1.6217375829
 O         -3.0457712972        0.0640357194        1.7033732106
 C         -1.8219413100        0.0273265393        1.0507460011
 O         -0.8514796642        0.3550758748        1.7579939892
 O         -2.9709477358       -1.1141178768       -2.1913982722
 C         -0.4688895292       -0.4098050618       -1.0106314250
 C          0.4739119971       -1.3602896105       -0.3153782598
 C          0.0088301894       -2.6188273776        0.0591371881
 C          0.8381389996       -3.5162917448        0.7016265217
 C          2.1545267098       -3.1850907576        0.9719063801
 C          2.6332615787       -1.9380302597        0.5918046253
 C          1.7938298491       -1.0346235345       -0.0471545826
 H          2.1852037005       -0.0740690277       -0.3363314013
 N          3.9551826123       -1.5665978704        0.8700164921
 S          4.8247683823       -0.6226051619       -0.1982530076
 O          4.4956906660       -0.9254549553       -1.5716104874
 O          6.2069187434       -0.8302017028        0.1796252325
 C          4.3701165294        1.0542971678        0.1894520654
 C          4.1577014150        1.4077920034        1.5069758638
 C          3.8430541881        2.7243466268        1.8032228436
 C          3.7543172483        3.6614940555        0.7851746536
 C          3.9769758279        3.2919659108       -0.5321723633
 C          4.2889069625        1.9760057521       -0.8356178687
 H          4.4602771904        1.6423227666       -1.8469379151
 H          3.9075430321        4.0225757316       -1.3225983299
 H          3.5083932505        4.6852407951        1.0196413936
 H          3.6654344171        3.0145882264        2.8262916751
 H          4.2291224707        0.6548789876        2.2739370654
 H          4.5238398901       -2.2809977856        1.2997733613
 H          2.8042365754       -3.8848030062        1.4753274831
 H          0.4599400214       -4.4853028892        0.9912082589
 H         -1.0180420807       -2.8815768752       -0.1563871909
 H         -0.6899271404       -0.8212979381       -2.0073747431
 C          0.0882910349        0.9887524805       -1.1746870577
 C          0.9711483043        1.3218904006       -2.3387117266
 C         -0.4310950317        1.8474083420       -2.2873941573
 H         -0.5815195130        2.8998870323       -2.1001839569
 H         -1.1668499241        1.4111699549       -2.9473430096
 H          1.7837499014        2.0150510095       -2.1830745630
 H          1.1968303237        0.5313386149       -3.0386757027
 H          0.2920162483        1.4692788820       -0.2240046541
