  62
        -98.94464171
 C         -2.6652945646        1.2863303341       -0.1269367591
 C         -2.5470857447        0.2909585389        0.8735989413
 C         -3.5089873913       -0.8158511727        0.7873482944
 C         -4.4453059552       -0.8207747684       -0.1783618143
 C         -5.5113522693       -1.8638443372       -0.3762018274
 C         -5.0452044674       -3.0892401896       -1.1740832028
 C         -4.0982495217       -4.0296311803       -0.4275450681
 H         -4.5359742259       -4.2968913924        0.5346956288
 H         -4.0241006615       -4.9452739784       -1.0174192310
 C         -2.6859787901       -3.4666484986       -0.2129759177
 H         -2.5196801738       -2.6242684420       -0.8888389266
 H         -1.9445744524       -4.2273903670       -0.4678851721
 C         -2.3921793596       -3.0149971386        1.2177861333
 H         -2.4185988089       -3.8782396208        1.8869333442
 H         -1.3792959401       -2.6023010561        1.2436305645
 C         -3.3582864097       -1.9504621089        1.7549265642
 H         -4.3274517079       -2.3987705533        1.9728206490
 H         -2.9418338415       -1.5464939027        2.6810082255
 H         -4.5657685046       -2.7458136679       -2.0935642245
 H         -5.9371067227       -3.6541793589       -1.4543239383
 H         -5.8953056047       -2.1835535880        0.5928089947
 H         -6.3194154986       -1.3804129616       -0.9293120715
 O         -4.5424390416        0.1689392608       -1.1049872694
 C         -3.6405844797        1.2188294740       -1.1251237506
 O         -3.8143274596        2.0245719291       -2.0610095171
 H          0.4029777195        1.7856118167        1.4447947623
 C          0.6090708525        1.5884124626        0.4049515941
 C         -0.3385131420        1.8985053862       -0.5571539208
 C         -0.0587099953        1.6024998892       -1.8886232215
 C          1.1411046536        1.0158002319       -2.2437290658
 C          2.0813592852        0.6981758011       -1.2782703008
 C          1.8034616225        0.9726864239        0.0532009434
 N          2.7431702400        0.6364895641        1.0433457965
 S          3.3999897275       -0.9091259652        1.0099181122
 O          2.5108117408       -1.8604277017        0.3847710032
 O          3.7863349208       -1.1872636520        2.3763018265
 C          4.8735656998       -0.7120115471        0.0277843137
 C          5.0907793008       -1.5303414975       -1.0632121178
 C          6.2493590426       -1.3640538723       -1.8062560992
 C          7.1659214384       -0.3882252870       -1.4462837739
 C          6.9345358910        0.4236817411       -0.3457991212
 C          5.7790831244        0.2616693677        0.4015444905
 H          5.5634900995        0.8683830084        1.2650003319
 H          7.6497310327        1.1813219672       -0.0687740259
 H          8.0657612852       -0.2598512600       -2.0268782190
 H          6.4308814229       -1.9950244010       -2.6615234135
 H          4.3472768228       -2.2721502244       -1.3087244405
 H          2.4338724675        0.8653940133        1.9775762699
 H          3.0128234740        0.2264227623       -1.5455853085
 H          1.3459731353        0.7973143015       -3.2808639159
 H         -0.8047001509        1.8259911397       -2.6390942833
 C         -1.6944343706        2.4554213581       -0.1980629065
 H         -2.0381814002        3.0825611353       -1.0311156907
 C         -1.7079527362        3.2814020484        1.0708321518
 C         -1.0887814065        4.6458610962        1.0627483573
 C         -2.5779756684        4.4987586453        1.1400327896
 H         -3.0722367313        4.7250629684        2.0729606834
 H         -3.1635169376        4.7442078021        0.2660424953
 H         -0.6616581266        4.9919317486        0.1337798186
 H         -0.5588608175        4.9779745935        1.9423625099
 H         -1.6203164208        2.6880602666        1.9723433022
 O         -1.6964683847        0.3165386813        1.8021749482
