  62
        -98.94390181
 C         -1.7752429762       -0.4977147215       -0.3910544498
 C         -3.0181196564       -1.0806117699       -0.7347351291
 C         -4.1386182334       -0.7875059973        0.1686103320
 C         -3.9247074555       -0.0209943997        1.2538932930
 C         -4.9857915934        0.3994298293        2.2283176221
 C         -5.6156829751        1.7384335102        1.8196509341
 C         -6.0494014203        1.7954985214        0.3548731138
 H         -6.5066031032        2.7733638952        0.1889430277
 H         -5.1634248339        1.7425971706       -0.2819127916
 C         -7.0353734865        0.6938940427       -0.0583139269
 H         -7.8345441367        1.1433484188       -0.6515648093
 H         -7.4971973689        0.2579285930        0.8283580829
 C         -6.4219555490       -0.4197782845       -0.9091396647
 H         -5.8792132695        0.0188366348       -1.7503623116
 H         -7.2369737068       -1.0194803626       -1.3232151806
 C         -5.4773495236       -1.3784794114       -0.1731893874
 H         -5.9692632462       -1.7645289296        0.7221061795
 H         -5.2716915695       -2.2200678426       -0.8414175283
 H         -6.4769551093        1.9253065746        2.4636524030
 H         -4.8845108632        2.5316445286        1.9915170680
 H         -5.7508065777       -0.3728534353        2.2811068333
 H         -4.5257968439        0.5095248428        3.2118924939
 O         -2.7121201986        0.5030688571        1.5638473304
 C         -1.6091836357        0.2904267566        0.7482441088
 O         -0.5664211854        0.8415950067        1.1429782986
 O         -3.1805619457       -1.8137633110       -1.7479912547
 C         -0.5838828187       -0.7342820764       -1.2982660141
 C          0.5628577788       -1.3851181177       -0.5639743997
 C          0.3165047775       -2.2911036408        0.4631529149
 C          1.3565467933       -2.8817115976        1.1562638423
 C          2.6710033667       -2.5960457665        0.8307849852
 C          2.9292768323       -1.7168024213       -0.2100078703
 C          1.8827510621       -1.1184125573       -0.9006982534
 H          2.1054250601       -0.4319551012       -1.7033627708
 N          4.2744870622       -1.4264489550       -0.5383022847
 S          5.0682788596       -0.4017652494        0.5264614355
 O          6.4136191569       -0.2644053822        0.0167015318
 O          4.9350839699       -0.9286427115        1.8593492121
 C          4.1992644878        1.1466884398        0.3615653698
 C          2.9564725740        1.2756648044        0.9483377877
 C          2.2262894988        2.4326894224        0.7257561406
 C          2.7532095793        3.4378659626       -0.0704700028
 C          4.0083030876        3.2979413962       -0.6450606460
 C          4.7359532665        2.1376396613       -0.4377888280
 H          5.7103559207        1.9816267219       -0.8722049446
 H          4.4150761607        4.0847439742       -1.2600462792
 H          2.1792445973        4.3347456137       -0.2447955848
 H          1.2408667720        2.5136504876        1.1566837638
 H          2.5629283348        0.4823831632        1.5629983598
 H          4.3849367476       -1.0648161962       -1.4763779316
 H          3.4949344990       -3.0280002245        1.3745230108
 H          1.1418940463       -3.5711979040        1.9589695843
 H         -0.7075113596       -2.5207882884        0.7244353799
 H         -0.9400351299       -1.4380669374       -2.0664235022
 C         -0.1827040298        0.5633720389       -1.9739023113
 C          0.3277218425        0.5690422166       -3.3834068119
 C         -1.0411587883        1.0972759486       -3.0797544857
 H         -1.2107585812        2.1619378127       -3.1350802170
 H         -1.8948114664        0.5033874275       -3.3729669051
 H          1.0994055452        1.2761507656       -3.6492529752
 H          0.3983263088       -0.3783527776       -3.8966867765
 H          0.2373881177        1.2789601952       -1.2755229188
