  62
        -98.93020969
 C          2.4272444394        1.2880032960        0.1530012360
 C          2.3464343081       -0.0047029495       -0.4183635635
 C          3.6290288557       -0.6331441739       -0.7904774762
 C          4.7810308702        0.0213574223       -0.5698055795
 C          6.1862326023       -0.4084832484       -0.9094397967
 C          6.5735425405       -1.8630495427       -0.6066506164
 C          5.8773378879       -2.4811351383        0.6145965149
 H          6.6318235434       -2.9320370466        1.2618555823
 H          5.3742875137       -1.7041321377        1.1927549018
 C          4.8698450298       -3.5709424258        0.2399055770
 H          5.3081478112       -4.1999036108       -0.5380205299
 H          4.6963408882       -4.2042224627        1.1132047497
 C          3.5050680880       -3.0712059054       -0.2330861010
 H          2.9542634311       -2.6385112745        0.6068056852
 H          2.9308713198       -3.9343430555       -0.5786362610
 C          3.5370637768       -2.0212505951       -1.3557811903
 H          4.3390810869       -2.2224148775       -2.0621015461
 H          2.5826971779       -2.0697166463       -1.8877720331
 H          6.3723536159       -2.4826741479       -1.4794659281
 H          7.6540542762       -1.8760388422       -0.4545470190
 H          6.3562360569       -0.2063466388       -1.9709024492
 H          6.8327569511        0.2677772929       -0.3452246714
 O          4.8132589215        1.2568330350        0.0058601322
 C          3.6553703040        1.9078700591        0.3927563391
 O          3.8483645212        3.0123604701        0.9386581815
 H         -1.4266977227        1.3837379818       -0.0492432812
 C         -1.0681767730        0.9078282660        0.8469530337
 C          0.2255200107        1.1264439787        1.2930720323
 C          0.6551258839        0.4722204172        2.4450190592
 C         -0.1821148732       -0.3963043238        3.1167703650
 C         -1.4673447530       -0.6251212622        2.6586001664
 C         -1.9121425571        0.0345616418        1.5187304747
 N         -3.2351755936       -0.1470435005        1.0776725561
 S         -3.6574074871       -0.0347815980       -0.5500505632
 O         -2.9505560641       -1.0180295526       -1.3396955413
 O         -3.5439341111        1.3375775079       -0.9746459150
 C         -5.3815459554       -0.4784164913       -0.4275875272
 C         -6.2868500735        0.4888814695       -0.0343646503
 C         -7.6235389068        0.1455201894        0.0901358592
 C         -8.0313607378       -1.1526154983       -0.1790397333
 C         -7.1122442157       -2.1122348552       -0.5755160908
 C         -5.7735041351       -1.7751670775       -0.7005824171
 H         -5.0253560905       -2.4852341545       -1.0150814270
 H         -7.4325986740       -3.1195571661       -0.7878069869
 H         -9.0724144747       -1.4174548462       -0.0821522961
 H         -8.3414397534        0.8898160114        0.3949368818
 H         -5.9249413526        1.4859129101        0.1548149199
 H         -3.6696458189       -0.9603876489        1.4926756117
 H         -2.1200661663       -1.3099736463        3.1785754191
 H          0.1693645643       -0.9058577783        4.0016875801
 H          1.6646470381        0.6432017435        2.7958063286
 C          1.1884084534        2.0511229917        0.5887190262
 H          1.5513745014        2.7844030470        1.3289759174
 C          0.5337389112        2.8506400795       -0.5280055228
 C          1.3277156762        3.3727077267       -1.6868260841
 C          0.3235044580        2.2814165277       -1.8975441758
 H         -0.5987442974        2.5131106642       -2.4114127469
 H          0.6771442325        1.2786268460       -2.0802647595
 H          1.1009943174        4.3609069318       -2.0576956959
 H          2.3769075926        3.1187467470       -1.7319591386
 H         -0.2483842132        3.5042669288       -0.1526035184
 O          1.2666780535       -0.6182585721       -0.6212452295
