  62
        -98.93596218
 C          2.2816581390        1.4893958410        0.2051737915
 C          2.4361903971        0.4143780416       -0.6992699745
 C          3.3872508194       -0.6479523836       -0.3119254473
 C          4.0183000519       -0.5681907859        0.8725502409
 C          5.0095525540       -1.5249284008        1.4846500436
 C          4.6602361681       -3.0188897913        1.3979882506
 C          5.5651987457       -3.7989960915        0.4431945241
 H          6.5884749667       -3.4362514224        0.5599350253
 H          5.5566290482       -4.8514518867        0.7351798298
 C          5.1678063372       -3.7254745737       -1.0299640865
 H          4.2583260710       -4.3095170580       -1.1880186784
 H          5.9628202034       -4.1988875022       -1.6109070594
 C          4.9347452435       -2.3152859541       -1.5763005494
 H          5.6818744894       -1.6250970025       -1.1868515581
 H          5.0689624296       -2.3523515734       -2.6595175620
 C          3.5241662899       -1.7728737761       -1.3022465251
 H          3.0984701418       -1.3772134925       -2.2298993113
 H          2.8608095939       -2.5885261054       -0.9971560679
 H          3.6154082825       -3.1394505454        1.1139770243
 H          4.7735902385       -3.4467252366        2.3954075601
 H          5.9896944019       -1.3465933787        1.0360074975
 H          5.0856511268       -1.2214626011        2.5311508458
 O          3.8345254602        0.4849544028        1.7186932982
 C          2.9774214873        1.5232063082        1.4172843863
 O          2.9205130041        2.4099175301        2.2919574401
 H         -0.2886656264        1.0765855495       -1.5529055003
 C         -0.7661228027        1.3755816761       -0.6322257313
 C         -0.0824249652        2.1933096437        0.2560295414
 C         -0.6967988912        2.5292518390        1.4575381209
 C         -1.9624395945        2.0579802110        1.7579848898
 C         -2.6372666061        1.2363161255        0.8723396438
 C         -2.0262001087        0.8850130534       -0.3237082278
 N         -2.6937603839        0.0261340004       -1.2197979943
 S         -3.1706725325       -1.4640393177       -0.6029489539
 O         -2.3193596321       -1.8871721104        0.4862283546
 O         -3.2421005475       -2.3493501447       -1.7452675442
 C         -4.8215191851       -1.1610874052       -0.0069453347
 C         -5.1497269647       -1.4652739874        1.2995637623
 C         -6.4441229966       -1.2305397863        1.7372906743
 C         -7.3819699896       -0.6997233558        0.8649867247
 C         -7.0366052938       -0.4013656027       -0.4449077964
 C         -5.7449509125       -0.6345461109       -0.8890619559
 H         -5.4357169657       -0.4197584574       -1.8982691380
 H         -7.7687549591        0.0115514809       -1.1199550432
 H         -8.3879914558       -0.5173455640        1.2083807516
 H         -6.7140135406       -1.4617799418        2.7552638156
 H         -4.3847018146       -1.8700115026        1.9430049842
 H         -2.1807525162       -0.1115802545       -2.0801157734
 H         -3.6189245216        0.8566617532        1.1050961975
 H         -2.4266487846        2.3286956303        2.6941031995
 H         -0.1620050379        3.1468979273        2.1649548338
 C          1.3267687699        2.6507447752       -0.0358822015
 H          1.5938180634        3.4098155862        0.7110365252
 C          1.4693811011        3.2637188880       -1.4141601466
 C          0.9149169243        4.6341219460       -1.6569366826
 C          2.3976949536        4.4237464688       -1.6045286006
 H          2.9623448138        4.4851987607       -2.5227539415
 H          2.9345410817        4.7819492091       -0.7380587658
 H          0.4451318369        5.1360902963       -0.8246840166
 H          0.4586035222        4.8431825831       -2.6122237919
 H          1.4092783409        2.5440144383       -2.2193824755
 O          1.8240899115        0.3207746347       -1.7982709314
