  62
        -98.93932991
 C         -2.1163486870       -0.9785640389        0.1008762068
 C         -2.8052303549       -0.2897813287        1.1243542255
 C         -3.5257942619        0.9312042022        0.7247610308
 C         -3.4549978149        1.3405826987       -0.5539675767
 C         -4.1492517961        2.5210500902       -1.1748784323
 C         -5.4882736693        2.0951095608       -1.8008709777
 C         -6.6797116364        2.1076153550       -0.8438006487
 H         -6.9438946766        3.1420351149       -0.6143479856
 H         -7.5254403399        1.6631498131       -1.3733065409
 C         -6.4721392780        1.3527829733        0.4718869509
 H         -7.4563883502        1.1153967885        0.8800852310
 H         -5.9659704598        0.4056483256        0.2769307632
 C         -5.6853801556        2.1614600208        1.5140656451
 H         -5.6280252666        3.2002271711        1.1891987900
 H         -6.2326619648        2.1624858044        2.4589211104
 C         -4.2737027776        1.6394094623        1.8217155481
 H         -4.3245623545        0.9104110404        2.6366304698
 H         -3.6576611264        2.4693887400        2.1846675438
 H         -5.7147486122        2.7658845296       -2.6320511833
 H         -5.3585523904        1.0924592675       -2.2162540407
 H         -4.2895273487        3.3138272625       -0.4459163311
 H         -3.4929346501        2.8851059519       -1.9683490011
 O         -2.7470857761        0.6673760359       -1.5024969987
 C         -2.0633793605       -0.5004448406       -1.2085290580
 O         -1.4638953069       -1.0040601316       -2.1763895947
 O         -2.8181051002       -0.6770216079        2.3253648043
 C         -1.3547702362       -2.2460756967        0.4470244362
 C          0.1167241369       -2.0288200395        0.1920568392
 C          0.9007309138       -2.8737834202       -0.5809831226
 C          2.2374451488       -2.5845508383       -0.7975540702
 C          2.8210824564       -1.4596377244       -0.2452716322
 C          2.0474761656       -0.6116014508        0.5369968221
 C          0.7109717769       -0.9042653684        0.7530552683
 H          0.1072725943       -0.2382973249        1.3584689841
 N          2.6349263612        0.5321750132        1.1125140686
 S          3.3911472671        1.6101681140        0.0658121065
 O          3.3483083391        2.8873858914        0.7454228055
 O          2.8096405747        1.5653624321       -1.2561552088
 C          5.0755522351        1.0353708946        0.0172462894
 C          5.6563111892        0.7074953422       -1.1920752990
 C          6.9701387238        0.2650208116       -1.2057143851
 C          7.6754444604        0.1600575103       -0.0166319687
 C          7.0779563598        0.4957117836        1.1893636282
 C          5.7654582504        0.9395110857        1.2100971293
 H          5.2644801742        1.2135489111        2.1234597819
 H          7.6297237845        0.4127246476        2.1118073381
 H          8.6969817078       -0.1856752856       -0.0301567961
 H          7.4359249700        0.0037847601       -2.1422958042
 H          5.0655938295        0.7992360153       -2.0897511888
 H          2.0078569971        1.0338964792        1.7258086980
 H          3.8596404321       -1.2287968452       -0.4174994073
 H          2.8329790043       -3.2454959489       -1.4085517960
 H          0.4632920883       -3.7519237701       -1.0262141940
 H         -1.4973281022       -2.3864362245        1.5288251658
 C         -1.9348001122       -3.4392650436       -0.2810724781
 C         -1.7904592353       -4.8148341959        0.2961406289
 C         -3.1258838980       -4.1355792295        0.3035387547
 H         -3.8932610223       -4.4938581330       -0.3661215475
 H         -3.5069232965       -3.7625511116        1.2430953810
 H         -1.6426888639       -5.6441339276       -0.3787930787
 H         -1.2654940732       -4.9096410068        1.2344637659
 H         -1.9005532000       -3.3266890289       -1.3587930135
