  62
        -98.94203331
 C         -0.5149787691       -1.4973342724        0.0211711296
 C         -1.4116874207       -0.8858892281        0.9248421561
 C         -2.4120190117        0.0288830843        0.3485352568
 C         -2.3837813645        0.2827797192       -0.9731435053
 C         -3.2380633006        1.1981485825       -1.8265794943
 C         -4.5492802736        1.7662916165       -1.2886067361
 C         -5.6504564281        0.7293786202       -1.0659847819
 H         -6.4932322034        1.2250600967       -0.5794914721
 H         -5.9924616846        0.3731388771       -2.0409950212
 C         -5.2513875746       -0.4946277700       -0.2450123970
 H         -6.1219235214       -1.1534478499       -0.1843605786
 H         -4.4678106460       -1.0468347047       -0.7680982226
 C         -4.7881375053       -0.2051161059        1.1813779549
 H         -4.6761303334       -1.1656029082        1.6914249679
 H         -5.5558336270        0.3651028306        1.7078084479
 C         -3.4505287449        0.5453831909        1.3023725521
 H         -3.5927908738        1.6158430779        1.1879378563
 H         -3.0530069704        0.3714139119        2.3061651503
 H         -4.9113112057        2.4753174530       -2.0382128684
 H         -4.3728118020        2.3332412474       -0.3795126260
 H         -3.4422562346        0.6415307349       -2.7469972993
 H         -2.5876755122        2.0320018713       -2.1148497988
 O         -1.4513531671       -0.2814817711       -1.7988624656
 C         -0.5261238891       -1.2058919758       -1.3418026432
 O          0.2047411913       -1.6883947284       -2.2273229791
 O         -1.3835721327       -1.0982026220        2.1672962491
 C          0.4886329686       -2.5003328694        0.5526859040
 C          1.9076654265       -2.0615142749        0.2870906073
 C          2.9381200030       -2.9664646765        0.0589469244
 C          4.2325467532       -2.5209984449       -0.1418080764
 C          4.5266918461       -1.1699029820       -0.1270483940
 C          3.5051808962       -0.2569613378        0.1041870594
 C          2.2134080063       -0.7075074842        0.3220905109
 H          1.4255023435        0.0104124809        0.5011842053
 N          3.7583466773        1.1252208712        0.1489009581
 S          2.7220275232        2.1477586094       -0.6801312077
 O          2.2242201323        1.5413563311       -1.8925969590
 O          3.4868581356        3.3668087290       -0.8544997803
 C          1.3807766830        2.4891136701        0.4370658606
 C          1.6283517630        2.6472775719        1.7861818755
 C          0.5740109011        2.9763187523        2.6230169873
 C         -0.6961209786        3.1610734893        2.0986228302
 C         -0.9244195425        3.0103497171        0.7402942418
 C          0.1214293277        2.6644236056       -0.0993181949
 H         -0.0129521110        2.5121888492       -1.1592960003
 H         -1.9086286078        3.1603149527        0.3278379640
 H         -1.5135714452        3.4219937426        2.7518561156
 H          0.7457996362        3.0900378186        3.6812133304
 H          2.6287413881        2.5012673185        2.1582374535
 H          4.7221132093        1.3806208821       -0.0157485162
 H          5.5342957869       -0.8212045406       -0.2957435747
 H          5.0220070159       -3.2349862619       -0.3210921404
 H          2.7255644990       -4.0227634866        0.0349160193
 H          0.3395258161       -2.5087927652        1.6438157453
 C          0.1835800511       -3.8837392532        0.0121307678
 C          0.4133578782       -5.1018500111        0.8549198385
 C         -0.9831024269       -4.6362105953        0.5768112955
 H         -1.5994266299       -5.2137106369       -0.0957886708
 H         -1.5342669374       -4.1636670498        1.3767726910
 H          0.7556455316       -6.0050617362        0.3723490541
 H          0.8037334763       -4.9558957398        1.8507193480
 H          0.3563500403       -3.9571385729       -1.0560608408
