  62
        -98.94473132
 C         -1.5085956117       -1.7681900755       -0.4690173837
 C         -1.5407748048       -0.5945264805       -1.2631597818
 C         -2.7484358074        0.2381639413       -1.1300590309
 C         -3.7219311737       -0.1293096124       -0.2796789476
 C         -4.9748853927        0.6523055606       -0.0124478429
 C         -4.7909360088        1.6229240299        1.1618315055
 C         -3.5373362912        2.4927432541        1.0611191437
 H         -3.5418892031        3.1703560278        1.9182623010
 H         -2.6462006254        1.8675568718        1.1595120790
 C         -3.4303181467        3.3095091071       -0.2338602607
 H         -3.1154132011        4.3239012662        0.0202708691
 H         -4.4085161448        3.3814784324       -0.7122838531
 C         -2.4078844392        2.7648907749       -1.2330125686
 H         -1.4630422661        2.5842970021       -0.7136128000
 H         -2.2270108573        3.5338096121       -1.9896362207
 C         -2.8181081839        1.4827840299       -1.9694013582
 H         -3.8173660682        1.6058021835       -2.3935936063
 H         -2.1116805020        1.3313580313       -2.7910058055
 H         -4.7303171872        1.0425425897        2.0855306224
 H         -5.6735183167        2.2631096385        1.2201565881
 H         -5.7719914564       -0.0519906511        0.2328646123
 H         -5.2521000729        1.2015024554       -0.9102690669
 O         -3.6558962135       -1.2589558450        0.4717350124
 C         -2.5497469478       -2.0882606950        0.4060203263
 O         -2.6126910054       -3.0832667768        1.1577142961
 O         -0.6298992230       -0.2436708030       -2.0553841929
 C         -0.3364642845       -2.7361764879       -0.4432092493
 C          0.6368739885       -2.3679920850        0.6501646522
 C          1.2642025673       -3.3474908914        1.4117560034
 C          2.1550946381       -2.9947785656        2.4100576469
 C          2.4284069257       -1.6652646807        2.6747399238
 C          1.7907964998       -0.6757821572        1.9319755269
 C          0.9146706658       -1.0359819017        0.9184665460
 H          0.4179072730       -0.2644175307        0.3554488536
 N          2.0028199458        0.6725694396        2.2252389853
 S          1.6839056137        1.9418176108        1.1935056649
 O          2.1803281152        3.0935837891        1.9173128660
 O          0.2881344169        1.9698258633        0.8416910362
 C          2.7243114114        1.6697584544       -0.2283199324
 C          2.2080710749        1.2252903413       -1.4273045285
 C          3.0771571196        1.0256836528       -2.4906060605
 C          4.4330208221        1.2641378653       -2.3388939366
 C          4.9355874743        1.7104265840       -1.1251426099
 C          4.0749197322        1.9166117516       -0.0611011832
 H          4.4201366785        2.2833545004        0.8918949242
 H          5.9906324067        1.8987213570       -1.0078814959
 H          5.1007405588        1.1037290249       -3.1706738891
 H          2.6786074246        0.6800549537       -3.4308354579
 H          1.1523050862        1.0276474557       -1.5316630018
 H          2.7275347150        0.8763993982        2.8947737764
 H          3.1120622387       -1.3902703958        3.4630571970
 H          2.6371622765       -3.7634150728        2.9947963777
 H          1.0327839867       -4.3873916100        1.2341210828
 H         -0.7707172643       -3.7133331032       -0.1750525065
 C          0.3415562527       -2.8969042939       -1.7972207006
 C          1.6865706183       -2.3225661064       -2.1122303309
 C          1.5274721781       -3.8027375762       -1.9523922395
 H          1.5830990307       -4.4276889655       -2.8308087241
 H          1.9345275119       -4.2550175457       -1.0614695680
 H          1.8371054807       -1.9173532634       -3.1003587545
 H          2.1982531743       -1.7737742271       -1.3364000219
 H         -0.3801988805       -2.9018473923       -2.6072178403
