  62
        -98.93397565
 C         -2.4752528362       -1.2507312956        0.3429232595
 C         -2.5500180777       -0.3795163351       -0.7687943418
 C         -3.5128406687        0.7400008180       -0.6733747239
 C         -4.2335051153        0.8869979575        0.4529565113
 C         -5.2337884627        1.9614085995        0.7864430906
 C         -4.5658204652        3.2952893346        1.1598388342
 C         -3.3962521062        3.7019861153        0.2666683904
 H         -2.9380322679        4.5925790474        0.7051843836
 H         -2.6426720923        2.9118876883        0.2795913731
 C         -3.7640755038        4.0293614983       -1.1785965896
 H         -2.8530178528        4.3726102140       -1.6753052792
 H         -4.4783017745        4.8557926969       -1.1867570215
 C         -4.3473751582        2.8769389445       -1.9983902670
 H         -4.3409332034        3.1890351713       -3.0468154580
 H         -5.3868564379        2.6984086604       -1.7367670346
 C         -3.5530090346        1.5761022744       -1.9299135094
 H         -3.9164864777        0.9064079324       -2.7188800696
 H         -2.5070554449        1.7801432096       -2.1859660833
 H         -5.3260813611        4.0779460891        1.1470808101
 H         -4.1885464974        3.2085780945        2.1819570268
 H         -5.9289589646        2.0915309292       -0.0375315609
 H         -5.8021501576        1.6047509347        1.6483283804
 O         -4.0944577005        0.0466434633        1.5194648065
 C         -3.2199057886       -1.0213335804        1.5010403190
 O         -3.1863689159       -1.6780133793        2.5621894018
 H         -0.0774086087       -0.4188710161        1.3075226739
 C          0.4522329436       -0.9263090949        0.5085644549
 C         -0.1558659253       -2.0060634380       -0.1218934300
 C          0.5356524473       -2.6506001253       -1.1381962485
 C          1.7945644470       -2.2148362094       -1.5146650086
 C          2.3887243695       -1.1326869270       -0.8931709338
 C          1.7066315290       -0.4803098656        0.1258875267
 N          2.3003271179        0.6325925579        0.7541538444
 S          3.8019583657        0.3915527583        1.4708797067
 O          3.9534214529       -0.9701084263        1.9311567457
 O          3.9116892735        1.4248293183        2.4779749380
 C          4.9638221844        0.7261246106        0.1645729971
 C          4.9018919972        1.9538536678       -0.4651569806
 C          5.8055077202        2.2315275005       -1.4783653167
 C          6.7522297318        1.2842242019       -1.8395678986
 C          6.8036488902        0.0580091216       -1.1945428793
 C          5.9013804002       -0.2271362512       -0.1814151019
 H          5.8976872376       -1.1689435168        0.3435006460
 H          7.5404212659       -0.6768010620       -1.4766354841
 H          7.4539207656        1.5032100658       -2.6288581123
 H          5.7683965378        3.1837337645       -1.9826261542
 H          4.1531216968        2.6623757410       -0.1522755061
 H          1.6836156251        1.1028998104        1.4012944143
 H          3.3646085476       -0.7854639331       -1.1911068467
 H          2.3177670734       -2.7225976849       -2.3105028150
 H          0.0826282935       -3.4831449122       -1.6503940389
 C         -1.5188687103       -2.4299453138        0.3706911758
 H         -1.4164654697       -2.6829134782        1.4400349456
 C         -2.0488268096       -3.6800440209       -0.3164566482
 C         -3.5215121212       -3.9156382408       -0.4671892552
 C         -2.6794236295       -3.6405424401       -1.6748038864
 H         -2.4811586552       -4.4559011666       -2.3551076480
 H         -2.7632544585       -2.6792110680       -2.1555488189
 H         -4.1913738318       -3.1419384041       -0.1202261454
 H         -3.8970308400       -4.9165075357       -0.3150309107
 H         -1.4485777041       -4.5538471452       -0.0817296675
 O         -1.8485640844       -0.5083648314       -1.8047154992
