  62
        -98.94284301
 C         -2.0184919080       -1.4685699077        0.0224668137
 C         -1.6647117292       -0.2073006847       -0.5142376714
 C         -2.7819433556        0.7019691304       -0.8134105267
 C         -4.0432943591        0.3051570449       -0.5695545449
 C         -5.2640016134        1.1551165790       -0.7672716142
 C         -5.6098161201        1.9338809751        0.5101718625
 C         -4.4205749024        2.6674060483        1.1308856490
 H         -4.7918285476        3.2014818998        2.0082534474
 H         -3.6942912110        1.9326960041        1.4861154950
 C         -3.7202459195        3.6567419655        0.1889581088
 H         -4.3763532327        3.8985701098       -0.6480117077
 H         -3.5334173974        4.5849451852        0.7330019324
 C         -2.3713649097        3.1745600710       -0.3482106899
 H         -1.7449168104        2.8402228622        0.4829454753
 H         -1.8713446841        4.0249765228       -0.8197086500
 C         -2.4359064892        2.0475384197       -1.3866415194
 H         -1.4394886902        1.9394869555       -1.8257725663
 H         -3.1328625263        2.3189486948       -2.1821481700
 H         -6.0004158157        1.2299710903        1.2488423732
 H         -6.3989519665        2.6501303759        0.2740715673
 H         -5.0907208330        1.8452314761       -1.5907731689
 H         -6.1008817262        0.5026812624       -1.0221125426
 O         -4.3463216207       -0.9137467637       -0.0537712889
 C         -3.3482915695       -1.8179317299        0.2724611090
 O         -3.7652091709       -2.8793888818        0.7767710757
 O         -0.4821828687        0.1588465457       -0.7328713076
 C         -0.9623983399       -2.4898229892        0.4095391755
 C          0.1593554407       -1.8128143463        1.1594674115
 C         -0.1339256554       -1.2071638044        2.3794341759
 C          0.8512688889       -0.5763885334        3.1130944443
 C          2.1531391863       -0.5376898452        2.6450165560
 C          2.4581125311       -1.1398840335        1.4307548615
 C          1.4654585308       -1.7770440685        0.6965549168
 H          1.7265720889       -2.2080220886       -0.2552976688
 N          3.7815792025       -1.1435106911        0.9493655201
 S          4.1466212937       -0.4896630302       -0.5487363533
 O          3.3921352243       -1.1577353080       -1.5755237043
 O          5.5875534451       -0.5930139274       -0.6464397708
 C          3.6925184534        1.2310891934       -0.4176541439
 C          2.3598494760        1.5869691123       -0.4659383080
 C          2.0240230177        2.9219826256       -0.2962344520
 C          3.0130982240        3.8691069805       -0.0829687179
 C          4.3472107518        3.4924888033       -0.0372173191
 C          4.6917328765        2.1609163912       -0.2005986091
 H          5.7148408236        1.8218092816       -0.1741812289
 H          5.1164220600        4.2299347390        0.1271822413
 H          2.7422226314        4.9051089507        0.0477396627
 H          0.9836824044        3.2047658384       -0.3309300009
 H          1.6009891874        0.8395723845       -0.6328698359
 H          4.4551206229       -0.8035085912        1.6220927283
 H          2.9270011962       -0.0462370352        3.2153843980
 H          0.6056072080       -0.1091042448        4.0548404829
 H         -1.1532312659       -1.2356865353        2.7417359323
 H         -1.4698459727       -3.1715586759        1.1127654062
 C         -0.4723719138       -3.3491870524       -0.7458404978
 C         -1.3788985205       -3.7079628281       -1.8843637289
 C         -0.2155553424       -2.7923479200       -2.1120449296
 H          0.6377576317       -3.1605142625       -2.6632700153
 H         -0.4061531626       -1.7429602665       -2.2703172656
 H         -1.3323905006       -4.7113816329       -2.2801365586
 H         -2.3728418523       -3.2841804546       -1.8860732304
 H          0.2011856340       -4.1313969564       -0.4075447878
