  62
        -98.93718014
 C         -1.3072013409       -1.2684601547        0.2346656490
 C         -2.2945442167       -0.8937009841        1.1766829483
 C         -2.9817942944        0.3888363068        0.9460834572
 C         -2.6116677067        1.1565862588       -0.0955399798
 C         -3.0934381402        2.5223575371       -0.5379982255
 C         -4.4266720011        3.0797460388       -0.0440617271
 C         -5.6602815197        2.3043012441       -0.5030960554
 H         -6.5375820063        2.7534637044       -0.0321205674
 H         -5.7663921124        2.4231400935       -1.5843045660
 C         -5.6483676612        0.8075341257       -0.2016932876
 H         -4.8551477538        0.3240265812       -0.7757436568
 H         -6.5965271360        0.3891554842       -0.5503499558
 C         -5.4914864528        0.4369725667        1.2724731603
 H         -5.6786539929       -0.6366490374        1.3620890831
 H         -6.2469399397        0.9567165147        1.8648682420
 C         -4.1064846956        0.7167367991        1.8846539531
 H         -4.0273675776        1.7433222023        2.2352756271
 H         -3.9827918095        0.0640716076        2.7539463754
 H         -4.4211919689        3.1717646956        1.0381650881
 H         -4.5065867800        4.0933991026       -0.4465218916
 H         -2.3041558247        3.2263159388       -0.2522076758
 H         -3.1026884501        2.4922281076       -1.6316694250
 O         -1.6090293669        0.7836836698       -0.9410314184
 C         -0.9405337861       -0.4260589512       -0.8160153869
 O         -0.0680618016       -0.6107207345       -1.6808599619
 O         -2.5835680359       -1.5955950596        2.1837568209
 C         -0.5765063542       -2.5814551757        0.4525219873
 C          0.9082228352       -2.3594329952        0.3082266635
 C          1.7180715169       -3.0617181592       -0.5730777083
 C          3.0672039907       -2.7661697401       -0.6730917402
 C          3.6361297110       -1.7681471633        0.0955840953
 C          2.8337019016       -1.0598117495        0.9811200263
 C          1.4878042743       -1.3664071601        1.0896296680
 H          0.8644074811       -0.8082304941        1.7783690165
 N          3.3961988408       -0.0247146437        1.7583740185
 S          4.1134675401        1.2355102156        0.9164335949
 O          5.3568248289        0.7736774082        0.3533055618
 O          4.2110909436        2.3177754318        1.8708755535
 C          2.9697943136        1.6593566945       -0.3824829227
 C          1.9184870294        2.5013194932       -0.0802686887
 C          1.0013027168        2.8082276974       -1.0710453331
 C          1.1418421236        2.2598222236       -2.3356869854
 C          2.1989359845        1.4113692064       -2.6206409626
 C          3.1244239092        1.1059421050       -1.6367756013
 H          3.9614187011        0.4527503112       -1.8210022047
 H          2.2968344646        0.9769869123       -3.6020450021
 H          0.4164903908        2.4872136359       -3.1005370641
 H          0.1744596871        3.4657098264       -0.8533627645
 H          1.8448205804        2.9109643549        0.9152108243
 H          2.7483747231        0.3550543375        2.4344551924
 H          4.6805985289       -1.5132998491        0.0155608272
 H          3.6833891848       -3.3169698773       -1.3674652359
 H          1.2906461164       -3.8243433963       -1.2026863905
 H         -0.7806339309       -2.8368442245        1.5063338587
 C         -1.1024147230       -3.7398256133       -0.3813134630
 C         -2.5175121952       -3.7552736594       -0.8748631769
 C         -1.3873495430       -3.6044540376       -1.8460794240
 H         -1.1550195445       -4.4383461667       -2.4923209932
 H         -1.2196249594       -2.6401363447       -2.2987704015
 H         -3.0584988026       -4.6894899825       -0.8514866889
 H         -3.1312214649       -2.8913479639       -0.6645562718
 H         -0.7028007708       -4.6929281280       -0.0484498820
