  62
        -98.94069272
 C          1.7541461135        0.5356010489       -0.3904244933
 C          2.9569738049        0.7374617961       -1.1140644372
 C          4.2033243029        0.6454344727       -0.3425665077
 C          4.1383731422        0.4341863428        0.9844213828
 C          5.3269209590        0.2661379631        1.8850466848
 C          5.7293942861       -1.2106096231        2.0037427372
 C          5.8523136451       -1.9279466524        0.6593715427
 H          6.1692994978       -2.9525599029        0.8652940528
 H          4.8656004822       -1.9849032823        0.1940478925
 C          6.8372414426       -1.2755958551       -0.3208991182
 H          7.4536188188       -2.0570266101       -0.7703745984
 H          7.5073685145       -0.6050466322        0.2182682560
 C          6.1766505347       -0.5131639157       -1.4710663103
 H          5.4367337117       -1.1534129673       -1.9583178481
 H          6.9462787102       -0.2818622882       -2.2122958094
 C          5.4960679677        0.8079938844       -1.0913008822
 H          6.1926929739        1.4318004059       -0.5273958598
 H          5.2410899587        1.3295683857       -2.0186524451
 H          6.6804308223       -1.2671550036        2.5364047500
 H          4.9743986911       -1.7281232449        2.5999804009
 H          6.1580129637        0.8498402482        1.4937866453
 H          5.0640757563        0.6429390800        2.8749076819
 O          2.9663767363        0.3063854601        1.6545779227
 C          1.7445974805        0.3479243407        0.9928748221
 O          0.7620757997        0.2131430066        1.7440588498
 H         -2.1053700446        0.0442107698       -0.2609370246
 C         -1.7990572780        1.0586817658       -0.0708774573
 C         -0.5393241373        1.4933052875       -0.4477596901
 C         -0.1746372495        2.8066786029       -0.1592065701
 C         -1.0419100931        3.6527864592        0.5018280105
 C         -2.3043709993        3.2168715521        0.8664815261
 C         -2.6820448991        1.9135576055        0.5747002209
 N         -3.9516018494        1.4310472766        0.9291027322
 S         -4.8083805022        0.5211629787       -0.1837131813
 O         -4.5086877983        0.9224960488       -1.5389247813
 O         -6.1917456101        0.6496342058        0.2239943449
 C         -4.2897453334       -1.1598751370        0.0863791263
 C         -4.2182295822       -1.6345447550        1.3808622213
 C         -3.8583356945       -2.9562444903        1.5891551168
 C         -3.5849545949       -3.7784401489        0.5064924038
 C         -3.6645317259       -3.2873062174       -0.7877755940
 C         -4.0210064305       -1.9651249015       -1.0025962720
 H         -4.0861532747       -1.5390399796       -1.9912488973
 H         -3.4497729021       -3.9274066115       -1.6289427325
 H         -3.3047102395       -4.8069130914        0.6716651131
 H         -3.7912344506       -3.3410914356        2.5939631975
 H         -4.4375770362       -0.9677474093        2.1978012084
 H         -4.5443078282        2.1003149221        1.3983776147
 H         -2.9876381981        3.8785889015        1.3773502990
 H         -0.7393087517        4.6644490644        0.7278235680
 H          0.8084279540        3.1512616160       -0.4516492684
 C          0.4498639892        0.6087681046       -1.1632071956
 H          0.7215888445        1.1102408217       -2.1081476988
 C         -0.1245043801       -0.7478398820       -1.5436345209
 C          0.7660616195       -1.9380996144       -1.7336941539
 C         -0.1819826239       -1.8897478023       -0.5751110946
 H         -1.0498681605       -2.5325212033       -0.5927213256
 H          0.2164441307       -1.7232798953        0.4130188967
 H          1.8208449618       -1.8090375562       -1.5386461266
 H          0.5525653660       -2.6127427310       -2.5489649918
 H         -0.9553905688       -0.6539601396       -2.2372294089
 O          2.9851538084        0.9892867842       -2.3486935642
