  62
        -98.92899505
 C          2.4736038810        1.2646801989        0.3253640900
 C          3.0664303009        0.3429724688        1.2250593100
 C          4.1515398807       -0.5043996715        0.7037462199
 C          4.5026018305       -0.3851988416       -0.5880819702
 C          5.5434859103       -1.1718219419       -1.3360169303
 C          4.9130838299       -2.3903373518       -2.0312026702
 C          4.8265347998       -3.6496853417       -1.1699948501
 H          4.2507828895       -4.3889184616       -1.7316869200
 H          5.8298362197       -4.0559769619       -1.0255980002
 C          4.1741946200       -3.4591289715        0.2018141000
 H          3.2877671901       -2.8290527513        0.1031064501
 H          3.8351214398       -4.4366944414        0.5506869101
 C          5.1290159702       -2.8613632017        1.2461138498
 H          5.1202947602       -3.4851303816        2.1424805499
 H          6.1468175102       -2.8926151919        0.8580039597
 C          4.7921485806       -1.4336388716        1.6988146698
 H          4.0852259807       -1.4750380314        2.5335427299
 H          5.7006253507       -0.9583670418        2.0842040497
 H          5.5000508898       -2.6290369619       -2.9203841202
 H          3.9125671399       -2.1049863116       -2.3668578000
 H          5.9441050003       -0.5043841720       -2.1017922704
 H          6.3510098803       -1.4703901820       -0.6742137904
 O          3.8823781706        0.4812543585       -1.4311710102
 C          2.8610495408        1.3233951787       -1.0147375001
 O          2.4134835009        2.0414810088       -1.9240732900
 H         -0.4169826990        0.5345337096        1.9323331904
 C         -0.7664057590        0.9193688596        0.9826374204
 C          0.0392437511        1.8072792494        0.2766427503
 C         -0.4166477289        2.2594522894       -0.9568976497
 C         -1.6449548391        1.8489431897       -1.4457782795
 C         -2.4469374392        0.9793826899       -0.7293572894
 C         -1.9936821991        0.4979586398        0.4911128306
 N         -2.7922793592       -0.3862153400        1.2346832407
 S         -3.5414653296       -1.6643058898        0.4487351509
 O         -3.7713860697       -2.6540781797        1.4784776809
 O         -2.7858947199       -2.0993290700       -0.7033746092
 C         -5.1065800895       -0.9835517395       -0.0595355290
 C         -5.5149768797       -1.0967942195       -1.3739048389
 C         -6.7408640996       -0.5647273092       -1.7429663888
 C         -7.5325554894        0.0664937410       -0.7959669187
 C         -7.1092614892        0.1689398709        0.5209082812
 C         -5.8857173193       -0.3617504093        0.8965488611
 H         -5.5218386391       -0.3050111893        1.9088061710
 H         -7.7274477590        0.6608240911        1.2544957813
 H         -8.4849197393        0.4813329012       -1.0861002486
 H         -7.0715858998       -0.6438497092       -2.7661380088
 H         -4.8633107599       -1.5900999297       -2.0777250190
 H         -2.3705600592       -0.6887624500        2.1008517007
 H         -3.4013482893        0.6585571101       -1.1132573093
 H         -1.9808873491        2.2134870797       -2.4047748595
 H          0.2032333711        2.9010857193       -1.5573953098
 C          1.3734865113        2.1557953691        0.8895431401
 H          1.3123465713        1.8380639492        1.9420936901
 C          1.7722849016        3.6256616990        0.9557749700
 C          1.9186291816        4.5678294090       -0.1998625701
 C          0.7931237118        4.7465602492        0.7720792800
 H          0.8333343721        5.5804552593        1.4568010400
 H         -0.2026357383        4.4900524494        0.4451154402
 H          2.7431485518        5.2660519288       -0.1607097202
 H          1.7184589814        4.2074224690       -1.1938539501
 H          2.5079395817        3.7654294089        1.7445614699
 O          2.7022773310        0.2312438489        2.4290390200
