  62
        -98.94513703
 C         -1.5335824223       -0.7997046187       -0.0087200066
 C         -2.8056132381       -1.4175651581        0.0072932407
 C         -3.9117921516       -0.5932971412        0.5128444385
 C         -3.6580242101        0.6578256951        0.9389502852
 C         -4.6983929552        1.6227024761        1.4281671428
 C         -5.2430649579        2.4824748538        0.2790122592
 C         -5.6637397963        1.6761468859       -0.9496799019
 H         -6.0597655951        2.3823098391       -1.6827400521
 H         -4.7788622177        1.2143633805       -1.3935652192
 C         -6.7122593549        0.5909331499       -0.6680667507
 H         -7.2051414896        0.7893360992        0.2844213721
 H         -7.4790784014        0.6344504389       -1.4444748857
 C         -6.1620552226       -0.8365574490       -0.6657124038
 H         -7.0091861177       -1.5277096984       -0.6764429673
 H         -5.5881495650       -1.0094916658       -1.5796961437
 C         -5.2819692763       -1.2104121677        0.5337408712
 H         -5.1234182357       -2.2925800176        0.5042366488
 H         -5.8022599569       -0.9656564539        1.4621534722
 H         -6.0953713375        3.0547087868        0.6499333377
 H         -4.4659241368        3.1875495302       -0.0243168054
 H         -4.2389762222        2.2752996908        2.1723497387
 H         -5.5093854138        1.0685772945        1.8967234151
 O         -2.4176677428        1.2087003705        0.9297083730
 C         -1.3231530471        0.5008774779        0.4515499255
 O         -0.2478871188        1.1239833936        0.4932001424
 O         -3.0054044124       -2.6025043134       -0.3757677909
 C         -0.3409239541       -1.5746267906       -0.5369377816
 C          0.7470071532       -1.6310123687        0.5058885610
 C          0.4185115988       -1.9879921731        1.8116568470
 C          1.3840402820       -2.0239213404        2.7980463574
 C          2.6971091556       -1.6948491181        2.5084801286
 C          3.0388207839       -1.3550674910        1.2058169724
 C          2.0691153580       -1.3395936347        0.2117786176
 H          2.3673498578       -1.0984456069       -0.7936678695
 N          4.3619018283       -1.0366440865        0.8760866757
 S          4.7166616968        0.0047153128       -0.3777072290
 O          4.5678411858       -0.6739826673       -1.6412725001
 O          6.0533536367        0.4725002335       -0.0757277626
 C          3.5651514496        1.3620025845       -0.2704620300
 C          3.4403761434        2.0347045292        0.9277350938
 C          2.5632493741        3.1029034214        1.0067448217
 C          1.8321667833        3.4811751520       -0.1074738107
 C          1.9730645723        2.7995694511       -1.3046334107
 C          2.8460832351        1.7281220378       -1.3888480537
 H          2.9785753140        1.1647762698       -2.2995000562
 H          1.3974221351        3.0919790273       -2.1688518230
 H          1.1419959495        4.3072010530       -0.0408782867
 H          2.4445689237        3.6324772267        1.9384235748
 H          4.0236735115        1.7212331998        1.7785735854
 H          4.9908473052       -0.9276237854        1.6571273729
 H          3.4500048762       -1.7070310634        3.2814662948
 H          1.1121610308       -2.2996325712        3.8059290954
 H         -0.6097171605       -2.2303178401        2.0437860791
 H         -0.7060417573       -2.5969000908       -0.7167686184
 C          0.1222892555       -0.9804089848       -1.8507819041
 C          0.8074791080       -1.8370043896       -2.8717322953
 C         -0.5888864701       -1.3508535854       -3.1161522037
 H         -0.7478828552       -0.5867451452       -3.8622295187
 H         -1.3981285929       -2.0625707592       -3.0405849543
 H          1.6161134019       -1.4107626042       -3.4470034771
 H          0.9466064666       -2.8811739451       -2.6350570832
 H          0.4502617701        0.0480980512       -1.7431357464
