  62
        -98.93387097
 C          1.5248100199        1.4051487099        0.2367099196
 C          1.6752735103        0.0602422000        0.6594131897
 C          2.8497668404       -0.6617931198        0.1552611997
 C          3.7033819601       -0.0353330897       -0.6742464805
 C          4.9226352702       -0.6260174295       -1.3321144206
 C          6.0649651604       -1.0572887692       -0.3926503207
 C          6.0217195308       -2.5343094291        0.0182643195
 H          5.4665237808       -3.0927532293       -0.7362710003
 H          7.0394677009       -2.9297653589        0.0147997694
 C          5.4352614211       -2.8240788591        1.4031673396
 H          5.2355322913       -3.8960776291        1.4647161998
 H          6.1820620711       -2.5855305588        2.1639664295
 C          4.1591777509       -2.0616495893        1.7605707497
 H          4.4058343407       -1.0248144092        2.0016035595
 H          3.7450732511       -2.4984065693        2.6717180298
 C          3.0813827208       -2.0569349497        0.6590984398
 H          2.1310587609       -2.4013875099        1.0726901500
 H          3.3648492808       -2.7190824497       -0.1579406401
 H          6.0738110604       -0.4160241890        0.4883800493
 H          6.9985006703       -0.8806336990       -0.9292616208
 H          4.6135554103       -1.4789604997       -1.9405704804
 H          5.2909706399        0.1489217505       -2.0074383607
 O          3.5212491998        1.2544783202       -1.0625001406
 C          2.4370691597        2.0096141200       -0.6293453306
 O          2.4215517894        3.1654446699       -1.0881688407
 O          0.8549980405       -0.5140563801        1.4254535499
 C          0.2996478098        2.1393283797        0.7522783997
 C         -0.8582804402        1.9079054193       -0.1846233802
 C         -0.7591174005        2.2118689091       -1.5398185302
 C         -1.8232661405        1.9725403888       -2.3889024501
 C         -2.9931787203        1.4062134186       -1.9114423898
 C         -3.0980753701        1.0892570987       -0.5628536898
 C         -2.0362298700        1.3543286491        0.2927333101
 H         -2.1328418799        1.1011696092        1.3375860701
 N         -4.2719391599        0.5129741285       -0.0478973396
 S         -4.1650621195       -0.8549576813        0.9154466906
 O         -5.5220412293       -1.3521182116        0.9807861808
 O         -3.5504718294       -0.5224931210        2.1737187305
 C         -3.1576605393       -1.9854824012       -0.0266680094
 C         -3.7995244192       -2.8158331715       -0.9265248892
 C         -3.0438046291       -3.6581205614       -1.7243768392
 C         -1.6607297691       -3.6478542511       -1.6192859294
 C         -1.0332892792       -2.8073546508       -0.7139552496
 C         -1.7830677493       -1.9664094209        0.0946379204
 H         -1.3006829994       -1.3148922107        0.8064777903
 H          0.0417817108       -2.7890215506       -0.6243979797
 H         -1.0684507791       -4.2989628310       -2.2427951694
 H         -3.5317188991       -4.3159691216       -2.4254716991
 H         -4.8766013193       -2.7959386917       -0.9699390791
 H         -5.0055839100        0.3960388683       -0.7326997995
 H         -3.8193368604        1.2108595983       -2.5780706797
 H         -1.7381508007        2.2195965787       -3.4363223901
 H          0.1598895394        2.6378683493       -1.9141436404
 H          0.0518292101        1.6411512597        1.7037804698
 C          0.5455098395        3.6078307298        1.0649546794
 C         -0.0965365608        4.7363718995        0.3207868694
 C         -0.5396192006        4.4153507996        1.7145276095
 H         -0.2769555606        5.0904697497        2.5148681894
 H         -1.5021699305        3.9400742094        1.8358981797
 H          0.4964432890        5.6225263196        0.1537342692
 H         -0.7658353009        4.5022644393       -0.4916249005
 H          1.5567937295        3.7838702600        1.4166694093
