  62
        -98.93166415
 C         -2.3773056724       -0.1594900572        0.3174380818
 C         -3.0865782246        0.6579323557       -0.5963717578
 C         -4.5016349276        0.3281218048       -0.8378616927
 C         -5.0531559857       -0.7129495767       -0.1870359301
 C         -6.4423139066       -1.3128117957       -0.2549679734
 C         -7.5834836456       -0.5632165904       -0.9370257348
 C         -8.0362679402        0.7043963612       -0.2130117537
 H         -8.7734290065        1.2116586183       -0.8391079709
 H         -8.5324522986        0.4142441675        0.7165509059
 C         -6.9274347486        1.6900509438        0.1469375321
 H         -6.2311943645        1.2210038120        0.8452521427
 H         -7.3866069158        2.5338175547        0.6692957615
 C         -6.1406265329        2.2500340540       -1.0363358402
 H         -5.4951235469        3.0461772650       -0.6553363507
 H         -6.8284309749        2.6947230812       -1.7582358249
 C         -5.2427780838        1.2407344133       -1.7723133978
 H         -5.8089117676        0.6665522670       -2.5018154690
 H         -4.4797750581        1.8032064359       -2.3183900602
 H         -8.4345221069       -1.2491839279       -0.9634468635
 H         -7.3251492108       -0.3428379458       -1.9685298187
 H         -6.7239053091       -1.5290658470        0.7805135005
 H         -6.3207688559       -2.2831118550       -0.7490095643
 O         -4.3307433024       -1.4756567401        0.6837026969
 C         -2.9963431300       -1.2265285287        0.9681873919
 O         -2.5072745439       -2.0226436587        1.7920466251
 O         -2.5548714778        1.6331889570       -1.1943799339
 C         -0.9301564184        0.1933902411        0.5864942648
 C          0.0729773943       -0.7049434366       -0.1031680749
 C         -0.2374746691       -1.9746390489       -0.5717715102
 C          0.7349901864       -2.7616641197       -1.1646331726
 C          2.0338769448       -2.3064822300       -1.2913368644
 C          2.3550071700       -1.0325384202       -0.8347495650
 C          1.3739243940       -0.2422518339       -0.2563691553
 H          1.6399892962        0.7455104071        0.0839307867
 N          3.6570086040       -0.5254039220       -0.9770597170
 S          4.2698446742        0.4646365152        0.2482453274
 O          4.0211816240       -0.1323770324        1.5403176012
 O          3.7717984421        1.8034498525        0.0557966694
 C          6.0101009280        0.4083350282       -0.1367109283
 C          6.8382401971       -0.4318238463        0.5833243336
 C          8.1845949013       -0.4860871915        0.2581103122
 C          8.6763892569        0.2939337983       -0.7776114429
 C          7.8327919212        1.1327371261       -1.4911144478
 C          6.4860640309        1.1930802446       -1.1703722719
 H          5.7955658511        1.8366260380       -1.6901153714
 H          8.2195340783        1.7393367358       -2.2940571336
 H          9.7244233012        0.2502206214       -1.0285633303
 H          8.8433602979       -1.1345230295        0.8130048811
 H          6.4128080907       -1.0134492178        1.3853596347
 H          4.3245537693       -1.2360953736       -1.2448936136
 H          2.7907854174       -2.9276170612       -1.7455211151
 H          0.4765157749       -3.7472507561       -1.5218561232
 H         -1.2426525393       -2.3518398845       -0.4606709658
 H         -0.7963079589        1.2051086298        0.1758922582
 C         -0.6203425201        0.2382883928        2.0736339072
 C          0.3540732258        1.2343580003        2.6221759199
 C         -1.1108884935        1.3906255698        2.8965147712
 H         -1.4795780130        1.1934192470        3.8916862554
 H         -1.6416708930        2.1781029059        2.3809065430
 H          1.0054097521        0.9237143022        3.4250157866
 H          0.8175731676        1.9288916862        1.9371957890
 H         -0.6466080945       -0.7420342326        2.5344834557
