  62
        -98.93987793
 C          2.3421785901        0.9935983618        0.4274139013
 C          2.6124028141       -0.0107225854       -0.5346612529
 C          3.6064221467       -1.0205132201       -0.1404145221
 C          4.1570772531       -0.9856331838        1.0855740567
 C          5.1557989617       -1.9647908283        1.6398935415
 C          6.6089956035       -1.6620624878        1.2496604335
 C          6.9646577171       -1.9512106314       -0.2092587200
 H          8.0524542634       -1.9033504727       -0.2893032920
 H          6.6644365647       -2.9689091226       -0.4607179225
 C          6.3526924165       -0.9682427844       -1.2171211254
 H          6.0220608341       -0.0682571651       -0.6933593944
 H          7.1166482732       -0.6583568051       -1.9337867645
 C          5.1805833572       -1.5317178327       -2.0208003827
 H          4.8017228774       -0.7420988177       -2.6749875429
 H          5.5295999469       -2.3520027109       -2.6520427476
 C          4.0126018123       -2.0377453251       -1.1641917153
 H          3.1561058165       -2.2109217969       -1.8206693471
 H          4.2793461776       -2.9780973154       -0.6823324003
 H          6.8201956011       -0.6143038534        1.4755576805
 H          7.2513519167       -2.2751473217        1.8858977502
 H          5.0727197793       -1.9097367232        2.7274139163
 H          4.8951859803       -2.9746653899        1.3218909346
 O          3.8385810168       -0.0304089620        1.9986043193
 C          2.9529397309        0.9858137575        1.6858646070
 O          2.7893873542        1.8174222811        2.6006018581
 O          2.0616433137       -0.0880872156       -1.6642843463
 C          1.3842637562        2.1489632896        0.1826624715
 C         -0.0380816016        1.7582241487        0.4915528572
 C         -0.8319151793        2.5390746282        1.3227089386
 C         -2.1431043702        2.1801762998        1.5834475799
 C         -2.6873100103        1.0385447235        1.0229249924
 C         -1.9020860193        0.2513134756        0.1907042906
 C         -0.5884970078        0.6134837915       -0.0685730915
 H          0.0146152173        0.0059719929       -0.7275691698
 N         -2.4439666389       -0.9161332313       -0.3796248446
 S         -3.8593013164       -0.7440412559       -1.2705819230
 O         -3.8717495822       -1.8596864744       -2.1909854908
 O         -3.9557714399        0.5739311832       -1.8548693462
 C         -5.1503851108       -0.9728945652       -0.0660284162
 C         -6.1133945408        0.0020944338        0.1056325258
 C         -7.1136995988       -0.2021013952        1.0435157710
 C         -7.1330516021       -1.3712805187        1.7884208194
 C         -6.1599297441       -2.3419921528        1.6017760520
 C         -5.1581978942       -2.1448310587        0.6648749348
 H         -4.3859829415       -2.8745366597        0.4865837402
 H         -6.1783957659       -3.2499755766        2.1827850512
 H         -7.9113504152       -1.5274651522        2.5186180210
 H         -7.8714079371        0.5508599621        1.1895741837
 H         -6.0538758798        0.8975859196       -0.4921353154
 H         -1.7652091487       -1.4479793364       -0.9066346496
 H         -3.7074063730        0.7541025429        1.2231239696
 H         -2.7481010603        2.7952215839        2.2318514795
 H         -0.4112385706        3.4266753345        1.7723314640
 H          1.6790959989        2.9225605919        0.9089007987
 C          1.5399301832        2.7541493155       -1.2076906256
 C          0.4974673598        2.6725305974       -2.2785681247
 C          0.7543356096        3.9749164573       -1.5856123910
 H          1.2511378536        4.7646592350       -2.1284209204
 H          0.0073617813        4.3193701498       -0.8862476020
 H          0.8367788780        2.5462581516       -3.2957165053
 H         -0.4258601207        2.1549953733       -2.0672571647
 H          2.5706745493        2.7199600722       -1.5466257157
