  62
        -98.94351667
 C         -1.8559907015       -0.8305726108        0.7583791272
 C         -2.1508852167       -0.4365992559       -0.5691738767
 C         -3.5743642217       -0.4514698657       -0.9365336686
 C         -4.4858161462       -0.8522420003       -0.0314011940
 C         -5.9700845563       -0.8577678101       -0.2537213377
 C         -6.6015006837        0.4680850793        0.1939801503
 C         -5.8866594589        1.7065034473       -0.3469032376
 H         -6.4362459927        2.5805632522        0.0094168664
 H         -4.8851663197        1.7586908552        0.0865342412
 C         -5.7780670646        1.7592433699       -1.8772097835
 H         -6.0382999880        2.7657088205       -2.2117516914
 H         -6.4993132384        1.0734519306       -2.3232161351
 C         -4.3826113849        1.4541779142       -2.4251340403
 H         -4.3652783708        1.7309715420       -3.4826138602
 H         -3.6431003005        2.0747578726       -1.9124621635
 C         -3.9328784859       -0.0090809142       -2.3272190100
 H         -4.6985044996       -0.6593041007       -2.7550350183
 H         -3.0191189790       -0.1155407708       -2.9189351644
 H         -6.5804261184        0.5102690602        1.2855296565
 H         -7.6450167265        0.4794592807       -0.1259597504
 H         -6.1742954358       -1.0319331803       -1.3082354165
 H         -6.4028891084       -1.6714308902        0.3306741202
 O         -4.1589427152       -1.2543549135        1.2240113936
 C         -2.8423921464       -1.2381257684        1.6552658757
 O         -2.6821801933       -1.6009052371        2.8388127400
 H          2.0850258864       -0.1055052169        0.3390691907
 C          1.4746521142        0.7422070048        0.6013253289
 C          0.1846209055        0.5550250390        1.0721956145
 C         -0.5662311902        1.6755915121        1.4188450606
 C         -0.0477937256        2.9470859758        1.2735199315
 C          1.2392149117        3.1294498319        0.7985484759
 C          2.0039777581        2.0189257587        0.4660564020
 N          3.3061357446        2.1694378512       -0.0305222837
 S          4.5116968734        1.1034525762        0.4201807947
 O          4.3360351163        0.6399690393        1.7767986127
 O          5.7438034774        1.8143711759        0.1499923200
 C          4.3782026860       -0.2587818794       -0.7184802352
 C          4.6907921236       -1.5279277719       -0.2730358406
 C          4.6365277518       -2.5860491196       -1.1669921778
 C          4.2720281275       -2.3572142562       -2.4846741267
 C          3.9629574622       -1.0762505557       -2.9164033912
 C          4.0199654458       -0.0133560780       -2.0291263242
 H          3.7812253329        0.9924729765       -2.3317562335
 H          3.6757863952       -0.9025280695       -3.9409767844
 H          4.2267484565       -3.1820947100       -3.1782140837
 H          4.8767020367       -3.5829292644       -0.8323751099
 H          4.9574566148       -1.6625517210        0.7632673019
 H          3.6409751027        3.1204577718       -0.0778837972
 H          1.6465094423        4.1226389305        0.6850318976
 H         -0.6472409347        3.8054194100        1.5381125532
 H         -1.5694572534        1.5348200024        1.7987669351
 C         -0.4181292202       -0.8185300147        1.2425845652
 H         -0.4549784795       -1.0405355718        2.3197977234
 C          0.3689931979       -1.9109966514        0.5478899968
 C          1.5179407257       -2.5777618360        1.2407970925
 C          0.2325645166       -3.3204462595        1.0367942051
 H          0.2075360414       -4.1184371674        0.3102894066
 H         -0.4069689472       -3.4872213198        1.8916367741
 H          1.7636335580       -2.2443748022        2.2381503071
 H          2.3746667826       -2.8664086622        0.6507222146
 H          0.4371608022       -1.7554534923       -0.5228670069
 O         -1.2745918431       -0.0877292886       -1.4016740774
