  62
        -98.94514112
 C          1.5346016868        0.7344963611       -0.5357895172
 C          2.8290893654        1.2999421159       -0.6064799124
 C          3.9414250769        0.3431455388       -0.6322729006
 C          3.6862197137       -0.9779259992       -0.6089366780
 C          4.7129306428       -2.0772020071       -0.6546919747
 C          5.3206932293       -2.4208496328        0.7121599324
 C          6.2953784924       -1.3830920435        1.2702814860
 H          6.8070709370       -1.8461491015        2.1164168423
 H          7.0517659220       -1.1547643525        0.5186861551
 C          5.6319677751       -0.0833602797        1.7468180595
 H          6.0353005689        0.1950293033        2.7231234421
 H          4.5602273176       -0.2490347774        1.8790543282
 C          5.8366075904        1.1113568490        0.8152052657
 H          5.2964618427        1.9664456051        1.2299573718
 H          6.8971738424        1.3702171826        0.7785005856
 C          5.3383077396        0.8867333543       -0.6185470667
 H          5.3247765743        1.8515450345       -1.1316842350
 H          6.0138631240        0.2174430480       -1.1508904900
 H          4.5086556703       -2.5785690705        1.4256788450
 H          5.8555977237       -3.3670725792        0.6025464866
 H          5.5081109712       -1.8081558917       -1.3505046768
 H          4.2018618750       -2.9636406337       -1.0361110803
 O          2.4245202727       -1.4814459613       -0.5577370612
 C          1.3183947186       -0.6436585958       -0.4981510099
 O          0.2277215847       -1.2362383689       -0.4207667260
 O          3.0446359431        2.5416642922       -0.6434753535
 C          0.3270736359        1.6521035076       -0.4960964626
 C         -0.5050431452        1.3614776428        0.7275873469
 C          0.1228364123        1.2600531281        1.9669510190
 C         -0.6025777368        0.9661431760        3.1044184193
 C         -1.9689580748        0.7564087332        3.0315501484
 C         -2.6079049241        0.8734768001        1.8037861288
 C         -1.8782552962        1.1893036864        0.6650943716
 H         -2.4029602342        1.2999784233       -0.2678503764
 N         -3.9916045467        0.6878095577        1.7005723456
 S         -4.6952051137        0.1406316197        0.2908794337
 O         -4.7666724749        1.2103348187       -0.6734841615
 O         -5.9692388395       -0.3955762360        0.7222116399
 C         -3.6664314770       -1.1773494613       -0.3286304293
 C         -3.2327245762       -1.1391816658       -1.6372144317
 C         -2.4547327652       -2.1792353784       -2.1171503228
 C         -2.1226003048       -3.2332632670       -1.2826346234
 C         -2.5681852098       -3.2586739799        0.0288171784
 C         -3.3493218290       -2.2234312728        0.5133088206
 H         -3.7125063434       -2.2193863569        1.5284326133
 H         -2.3010284508       -4.0783242331        0.6764009302
 H         -1.5056785265       -4.0356096373       -1.6550726163
 H         -2.1006800396       -2.1588413729       -3.1359749099
 H         -3.5064556911       -0.2953347438       -2.2513850692
 H         -4.4455867753        0.3254793411        2.5251528979
 H         -2.5351670920        0.5106660109        3.9167423413
 H         -0.1001780002        0.8879405945        4.0569304493
 H          1.1928025030        1.4084133207        2.0235915893
 H          0.7312179232        2.6719457727       -0.4107102058
 C         -0.4529277642        1.5408920060       -1.7893670993
 C         -1.2667338746        2.6973162090       -2.2854523551
 C          0.0000895601        2.3152859017       -2.9890612011
 H         -0.0677690400        1.8488758943       -3.9603986264
 H          0.8636437757        2.9534647429       -2.8707216940
 H         -2.2118713972        2.4967935486       -2.7681721780
 H         -1.2652789550        3.5995691110       -1.6924512573
 H         -0.8338990350        0.5386514927       -1.9544749762
