  62
        -98.94056061
 C         -2.3413477462       -0.1793524685        0.2775127968
 C         -3.5144319605       -0.5540537716        0.9750026565
 C         -4.7270250223        0.2072001688        0.6479925460
 C         -4.6531856219        1.2051524091       -0.2518666608
 C         -5.8207556523        2.0229568569       -0.7213511048
 C         -6.4710846194        1.3978790571       -1.9636128434
 C         -6.7655897431       -0.0954632507       -1.8213405279
 H         -7.2497340801       -0.4208306506       -2.7446832827
 H         -5.8211536645       -0.6393782469       -1.7455544825
 C         -7.6549555371       -0.4557899205       -0.6231411479
 H         -8.4141635159       -1.1683137149       -0.9523989840
 H         -8.1772776387        0.4335527152       -0.2689290195
 C         -6.9118495076       -1.1055479413        0.5455483301
 H         -6.3119448788       -1.9422068583        0.1785859083
 H         -7.6544789660       -1.5135836612        1.2363497065
 C         -5.9975070718       -0.1760867831        1.3536444168
 H         -6.5530408439        0.7129802207        1.6585065588
 H         -5.6885357263       -0.7147888485        2.2542347699
 H         -5.7968670640        1.5341354901       -2.8123224199
 H         -7.3974131025        1.9348508052       -2.1755169416
 H         -5.4610958435        3.0217093043       -0.9740223242
 H         -6.5498117817        2.1018397905        0.0826464209
 O         -3.5015274223        1.5545291127       -0.8805063717
 C         -2.3192933925        0.8690900576       -0.6420067754
 O         -1.3442707639        1.2851958530       -1.2957982507
 O         -3.5441727676       -1.4776652110        1.8327318582
 C         -1.0557911852       -0.9401627781        0.5437980197
 C          0.0211059664       -0.0012437201        1.0276077050
 C         -0.2571025562        0.8432308226        2.1002714028
 C          0.7008380755        1.7137513322        2.5809871206
 C          1.9623693937        1.7521884881        2.0127958113
 C          2.2502245975        0.9150281309        0.9422033179
 C          1.2827927193        0.0444969967        0.4580246881
 H          1.5358818312       -0.5926971055       -0.3723360914
 N          3.5118726750        0.9497067022        0.3268323169
 S          4.1578088626       -0.4863604574       -0.2801076339
 O          3.6194255733       -0.7303770117       -1.5944006813
 O          3.9950470013       -1.5499869419        0.6855320364
 C          5.8772127923       -0.0304192527       -0.4121463781
 C          6.2837153283        0.7107003971       -1.5058447868
 C          7.6124470731        1.0927853322       -1.5995316131
 C          8.5075741979        0.7303483369       -0.6037585890
 C          8.0855090188       -0.0151195507        0.4867356323
 C          6.7575659586       -0.3995501142        0.5873419678
 H          6.3858056140       -0.9863168821        1.4118991373
 H          8.7844897105       -0.2982929061        1.2571193842
 H          9.5413226697        1.0283884692       -0.6799758951
 H          7.9447809714        1.6698303978       -2.4473498787
 H          5.5543678864        0.9608082841       -2.2587306103
 H          4.1950574471        1.4719957028        0.8581134017
 H          2.7126385445        2.4310405076        2.3888855333
 H          0.4678742920        2.3635611340        3.4112809214
 H         -1.2406497660        0.8073520388        2.5493522415
 H         -1.2913312305       -1.6372059358        1.3626084328
 C         -0.6555468010       -1.7437442947       -0.6752452062
 C          0.1829024872       -2.9763510984       -0.5230199784
 C         -1.2637964159       -3.0950275933       -0.8951289741
 H         -1.5154486847       -3.3897886334       -1.9028543395
 H         -1.9556052241       -3.4545229576       -0.1473242427
 H          0.9326731384       -3.1831345599       -1.2724807566
 H          0.4795554390       -3.2579727242        0.4763396010
 H         -0.4893240623       -1.1216870719       -1.5486016830
