  62
        -98.94185646
 C          1.7171733704        0.1162986905        0.4500013696
 C          2.8238203006        0.8456758112        0.9574492680
 C          4.1401637205        0.2178577207        0.8017014091
 C          4.2312575502       -1.0106142104        0.2620740214
 C          5.4981927800       -1.7964578510        0.0588291527
 C          6.2512602299       -1.4431826336       -1.2310979481
 C          6.9573328902       -0.0866578837       -1.2217122808
 H          7.5858296103       -0.0118571521       -0.3337544210
 H          7.6175576200       -0.0636003955       -2.0909986009
 C          6.0112673104        1.1204709263       -1.2887328529
 H          5.0269275003        0.7921235259       -1.6311011122
 H          6.3834191804        1.8344080449       -2.0269996044
 C          5.8517438207        1.8748730289        0.0314770856
 H          5.1346149108        2.6855702987       -0.1215229758
 H          6.8073706108        2.3207590293        0.3157357747
 C          5.3495664607        1.0106565712        1.1957181774
 H          6.1427829606        0.3490082417        1.5428402085
 H          5.0601972909        1.6728465229        2.0152834661
 H          7.0034197097       -2.2190494040       -1.3918736967
 H          5.5494057598       -1.4834720451       -2.0675310679
 H          6.1574591802       -1.6569045095        0.9160892124
 H          5.2070752998       -2.8480392610        0.0109391848
 O          3.1406815500       -1.7080357609       -0.1500816371
 C          1.8613473101       -1.1628541306       -0.0895030480
 O          0.9769770999       -1.9198765913       -0.5301564264
 O          2.7141604609        1.9668399223        1.5201758259
 C          0.3493476006        0.7655837109        0.5599233185
 C         -0.6723175595       -0.2157322479        1.0725648406
 C         -0.5630466295       -0.6776644354        2.3819889514
 C         -1.4730084195       -1.5839296343        2.8896025733
 C         -2.5260369697       -2.0315611256        2.1105941443
 C         -2.6424591598       -1.5786432780        0.8025424234
 C         -1.7187250897       -0.6770415792        0.2907432716
 H         -1.8037917498       -0.3810070412       -0.7406084490
 N         -3.6964045000       -2.0116019294       -0.0122018156
 S         -4.3606992600       -0.9911891715       -1.1498700674
 O         -5.7068737601       -1.4914246716       -1.3360792963
 O         -3.5457551502       -0.9392131739       -2.3372230777
 C         -4.4140048296        0.6175832400       -0.3770668205
 C         -3.8489092695        1.7002303487       -1.0189945427
 C         -3.8923816292        2.9430693999       -0.4071155550
 C         -4.4957171590        3.0802244224        0.8331316748
 C         -5.0657469891        1.9843551937        1.4628625570
 C         -5.0275755294        0.7406536425        0.8539498693
 H         -5.4687488995       -0.1273607865        1.3157114611
 H         -5.5371681789        2.0953433256        2.4259715368
 H         -4.5226158987        4.0472098233        1.3100860129
 H         -3.4520250091        3.7968162788       -0.8975641567
 H         -3.3832861896        1.5470939668       -1.9796740524
 H         -4.3855025301       -2.5943600484        0.4381070556
 H         -3.2408360598       -2.7375336847        2.5050960258
 H         -1.3692236995       -1.9404002623        3.9033221340
 H          0.2569598807       -0.3250135944        2.9926198806
 H          0.4828471708        1.5465308024        1.3272970870
 C         -0.1042405395        1.4776796986       -0.7055848728
 C          0.8829109305        2.1074872466       -1.6405031741
 C          0.1074625202        0.9004095259       -2.0716492417
 H         -0.6746483299        1.0184188647       -2.8082352018
 H          0.6194050300       -0.0470380843       -2.1414517299
 H          0.6382318106        3.0624948758       -2.0802680159
 H          1.9329176305        1.9854692669       -1.4174129440
 H         -1.0318430094        2.0197420991       -0.5472169037
