  62
        -98.94277034
 C         -1.1669734306       -1.6803506604        0.1971008488
 C         -1.6058204909       -0.8080451309        1.2182587290
 C         -2.8376931410       -0.0457792610        0.9524930091
 C         -3.4479387008       -0.1918839108       -0.2362230610
 C         -4.6629686009        0.5364068892       -0.7407525410
 C         -4.2509402610        1.7937979695       -1.5256361605
 C         -4.0897147314        3.0563895593       -0.6810177501
 H         -3.6932799115        3.8356249596       -1.3362429397
 H         -5.0722610915        3.3846790190       -0.3336957201
 C         -3.1606100315        2.9214757891        0.5280112800
 H         -2.2538783514        2.3855232793        0.2374613300
 H         -2.8485310118        3.9269118890        0.8196327304
 C         -3.8313875516        2.2413784885        1.7309463897
 H         -4.9073659315        2.2004346484        1.5609840396
 H         -3.6818365318        2.8567468383        2.6208940499
 C         -3.3081539713        0.8402219085        2.0736868493
 H         -4.0773630813        0.3032661882        2.6399041191
 H         -2.4410286415        0.9319495585        2.7357052395
 H         -5.0036942810        1.9927686596       -2.2915960105
 H         -3.3093590509        1.5788409499       -2.0385852004
 H         -5.1742573107       -0.1474182207       -1.4216208112
 H         -5.3341202611        0.7846861088        0.0761026390
 O         -2.9784862405       -1.0263761303       -1.2047816112
 C         -1.8273648104       -1.7742597902       -1.0271856213
 O         -1.5077653601       -2.4696347398       -2.0103850415
 O         -0.9849311411       -0.6620937311        2.3073624292
 C          0.1193894096       -2.4586866202        0.3956927087
 C          1.1757881196       -1.9877873397       -0.5757130810
 C          2.1318053299       -2.8268453393       -1.1351043211
 C          3.0873075499       -2.3182953389       -1.9984187308
 C          3.1277204096       -0.9700799787       -2.3061483104
 C          2.1784733594       -0.1219713591       -1.7475242602
 C          1.2175068394       -0.6383107896       -0.8945472405
 H          0.4694519992        0.0254192401       -0.4916503504
 N          2.1667559591        1.2523948010       -2.0265615798
 S          1.6936146088        2.3313669405       -0.8388837795
 O          0.2656768087        2.2844093501       -0.6520382497
 O          2.2289974086        3.6011886607       -1.2828444790
 C          2.5617927087        1.7944646002        0.6243093505
 C          1.8952149086        1.2004112397        1.6754771502
 C          2.6285090686        0.7467023995        2.7614620201
 C          4.0060008885        0.8939783998        2.7796073104
 C          4.6612516986        1.5026923803        1.7193003207
 C          3.9348590786        1.9546471005        0.6307834307
 H          4.4056800387        2.4427685508       -0.2071190591
 H          5.7325397285        1.6217682905        1.7372453709
 H          4.5704122685        0.5342767196        3.6254506003
 H          2.1084998086        0.2737955591        3.5794548599
 H          0.8228835687        1.0863743195        1.6432627500
 H          2.9528158092        1.5912628513       -2.5606333895
 H          3.8750592897       -0.5780291584       -2.9785991901
 H          3.8175586201       -2.9825258586       -2.4349318509
 H          2.1230414100       -3.8791880494       -0.9028222314
 H          0.4623072894       -2.2002742105        1.4097815189
 C         -0.1319611501       -3.9508663103        0.3334512582
 C          0.6841178099       -4.8925115604        1.1665364380
 C         -0.7477318402       -4.6289428608        1.5197356579
 H         -1.4769109000       -5.4063918009        1.3483310176
 H         -0.9584851504       -4.0172243111        2.3849339181
 H          0.9380988202       -5.8572754102        0.7539308777
 H          1.4464178398       -4.4673257304        1.8016811783
 H         -0.4499517199       -4.2770789400       -0.6502080019
