  62
        -98.92997929
 C         -2.2840258208       -0.6084453073       -0.3189758139
 C         -3.0513242294        0.5607811015       -0.5454372762
 C         -4.3136336402        0.6578013097        0.2112731169
 C         -4.6404801062       -0.3107282719        1.0842759335
 C         -5.9211943515       -0.3880870151        1.8657337620
 C         -7.0631136905       -0.8832109637        0.9550505513
 C         -8.1647826565        0.1474736376        0.7066607743
 H         -8.7867334720       -0.2293723434       -0.1081921413
 H         -8.7941087035        0.2152854295        1.5965547920
 C         -7.6908969853        1.5620807606        0.3593936254
 H         -8.5546799144        2.0963076057       -0.0420739896
 H         -7.3982171798        2.0851502239        1.2709462620
 C         -6.5405465018        1.6561994703       -0.6513014721
 H         -6.5101353888        0.7679888340       -1.2828658156
 H         -6.7351912588        2.5062777781       -1.3083589498
 C         -5.1525981964        1.8837439837       -0.0235121222
 H         -4.5589656197        2.5019251977       -0.7034562836
 H         -5.2616642850        2.4369400971        0.9132152945
 H         -6.6303791184       -1.1923811071        0.0011406927
 H         -7.5194046692       -1.7717795409        1.3940196122
 H         -5.7589812659       -1.0877657352        2.6858343199
 H         -6.1587936685        0.5883957856        2.2816991145
 O         -3.8562771519       -1.3989733131        1.3045597690
 C         -2.6743211630       -1.5765740068        0.6095877408
 O         -2.0637826914       -2.6270289583        0.8971542142
 O         -2.7190341449        1.4848200724       -1.3294836411
 C         -0.9813425452       -0.9032187034       -1.0446443560
 C          0.1934816965       -0.2959224355       -0.3244084233
 C          0.2291787207        1.0564906940        0.0016601032
 C          1.3310983398        1.5956990287        0.6405438573
 C          2.4174865657        0.8012917231        0.9663325414
 C          2.3857126521       -0.5504340128        0.6556297868
 C          1.2789947783       -1.0894441528        0.0163380783
 H          1.2609026076       -2.1461428068       -0.2178310187
 N          3.5121982351       -1.3534494644        0.9684526246
 S          4.7542966434       -1.2032924971       -0.1648366364
 O          4.2204142861       -1.0732707928       -1.5029299901
 O          5.6312603693       -2.3300712697        0.0644815275
 C          5.5659197833        0.3029392665        0.3170898151
 C          6.3295734087        0.2968807053        1.4680903596
 C          6.9507136275        1.4707670227        1.8634665421
 C          6.7963847541        2.6228820580        1.1064209450
 C          6.0270678321        2.6112463639       -0.0472486203
 C          5.4037505384        1.4402083369       -0.4491783533
 H          4.7942336001        1.3838756252       -1.3367389951
 H          5.9081640771        3.5081199713       -0.6336428046
 H          7.2795929013        3.5358496408        1.4169549875
 H          7.5508256921        1.4845567718        2.7590198362
 H          6.4255983543       -0.6224395414        2.0215538152
 H          3.2770709292       -2.3337279654        1.0527524475
 H          3.2766479191        1.2143520109        1.4691712355
 H          1.3452976929        2.6465713503        0.8860802745
 H         -0.6150715077        1.6774427358       -0.2575859484
 H         -0.8681005793       -1.9981412423       -0.9885804526
 C         -1.0202666104       -0.5399481200       -2.5232426420
 C         -0.2706400445        0.6034228894       -3.1299773828
 C          0.1782070181       -0.8014798768       -3.3881366928
 H          0.0270083376       -1.2260468337       -4.3692504780
 H          1.0857687981       -1.1312784888       -2.9018499016
 H         -0.7564573571        1.1510403854       -3.9229030653
 H          0.3376324497        1.2187895738       -2.4869488968
 H         -1.9886388677       -0.7600919141       -2.9618770460
