  62
        -98.94917810
 C          1.0178438489        1.7178012499       -0.1399409106
 C          2.1217146995        1.4132222607        0.6901830689
 C          3.0186266197        0.3600565510        0.2009335787
 C          2.7629080894       -0.2396523595       -0.9760034610
 C          3.6075549895       -1.2997907992       -1.6307025811
 C          3.3460030905       -2.7241336792       -1.1222609405
 C          3.8728607314       -3.0227127786        0.2818012193
 H          3.8199050720       -4.1045984085        0.4194154296
 H          4.9236433913       -2.7372317280        0.3446768886
 C          3.0895181517       -2.3481761186        1.4168119295
 H          2.9062656625       -3.0720021385        2.2148294498
 H          2.1050377213       -2.0331365892        1.0615199799
 C          3.7930164914       -1.1483224281        2.0516664388
 H          3.1202283816       -0.7212495182        2.8003583390
 H          4.6977447719       -1.4839381775        2.5644252584
 C          4.1766768904       -0.0382715582        1.0648272182
 H          4.4775100503        0.8406716521        1.6409140978
 H          5.0183305902       -0.3582697180        0.4502502079
 H          3.8301567805       -3.4117639192       -1.8197396906
 H          2.2722332906       -2.9223497898       -1.1527616099
 H          3.3756629190       -1.2663874197       -2.6974089110
 H          4.6625004895       -1.0567204287       -1.4990993317
 O          1.6885248288        0.0815762998       -1.7443637105
 C          0.7751394586        1.0446118895       -1.3364414903
 O         -0.1814668319        1.2091600688       -2.1156059098
 H         -0.6873370597        0.4715119596        1.3655363907
 C         -1.5416266702        1.0244503290        1.0025286910
 C         -1.3552305411        2.2604667990        0.3956391605
 C         -2.4730007317        2.9572149683       -0.0467785391
 C         -3.7394719813        2.4204529077        0.1046543818
 C         -3.9186409804        1.1837896578        0.6957232022
 C         -2.8079361998        0.4824839985        1.1514199218
 N         -2.9582122889       -0.7648136314        1.7828147623
 S         -1.9365046185       -2.0240330810        1.3893655121
 O         -2.6113057076       -3.1993342812        1.8998995328
 O         -0.6139814283       -1.7833559502        1.9073212413
 C         -1.9047334194       -2.0860325315       -0.3907961679
 C         -3.0915152297       -2.2756922223       -1.0714225472
 C         -3.0675294204       -2.3234134827       -2.4551233872
 C         -1.8645561608       -2.1854904823       -3.1311744779
 C         -0.6813506305       -2.0043817215       -2.4340043386
 C         -0.7029848398       -1.9509504712       -1.0502226386
 H          0.1910320004       -1.7968315306       -0.4660551191
 H          0.2541520291       -1.8835728212       -2.9561485891
 H         -1.8468582914       -2.2176832626       -4.2090928079
 H         -3.9849850506       -2.4656390333       -3.0033255467
 H         -4.0076302293       -2.3944197426       -0.5159552267
 H         -3.9136249187       -1.0847972019        1.8501015229
 H         -4.9064126301        0.7647536274        0.8123351929
 H         -4.5983539218        2.9712443272       -0.2470991179
 H         -2.3526173624        3.9217262882       -0.5117113494
 C          0.0482910386        2.8030895496        0.2852949696
 H          0.3734675090        3.1081741800        1.2919982194
 C          0.1638580975        3.9948796994       -0.6438247508
 C         -0.0756547729        5.3836910394       -0.1336636511
 C          1.3152252772        4.9374073500       -0.4669602117
 H          1.7924337465        5.3408062700       -1.3474190821
 H          1.9985722277        4.7353738406        0.3451660580
 H         -0.3337937824        5.4965681296        0.9084774790
 H         -0.5521091036        6.0985684090       -0.7875294210
 H         -0.1386365729        3.7598715089       -1.6582361106
 O          2.3532582098        2.0014981811        1.7817950586
