  62
        -98.93736104
 C         -2.2820062975        0.5117143877        0.2581966573
 C         -3.5321640450        0.9868133667        0.7315090696
 C         -4.7090158098        0.6367342485       -0.0740423769
 C         -4.5387606375       -0.0506302207       -1.2176822398
 C         -5.6506325451       -0.5243319284       -2.1072949885
 C         -6.1094743480       -1.9362365335       -1.7163842383
 C         -6.3828741409       -2.1057471361       -0.2218047019
 H         -6.7285290531       -3.1303942395       -0.0687109379
 H         -5.4438690906       -1.9997428554        0.3266612546
 C         -7.4173502783       -1.1261299499        0.3499996519
 H         -8.0053785361       -0.6939298985       -0.4603639106
 H         -8.1062529149       -1.6798169434        0.9913458440
 C         -6.8242199821       -0.0011382173        1.2003916878
 H         -6.1593995256       -0.4252935112        1.9574316750
 H         -7.6434895626        0.4952881946        1.7271096959
 C         -6.0529253750        1.0795225169        0.4321401610
 H         -6.6676603493        1.4584037057       -0.3866977604
 H         -5.8551600543        1.9031913802        1.1243634372
 H         -7.0116528803       -2.1751093971       -2.2823534055
 H         -5.3296756691       -2.6453627839       -2.0038380423
 H         -6.4842978701        0.1719126125       -2.0399327258
 H         -5.2845153613       -0.5420549512       -3.1350865340
 O         -3.3199609765       -0.4331903321       -1.6739678913
 C         -2.1604685851       -0.1739484882       -0.9514787855
 O         -1.1256577208       -0.5946999138       -1.5000832311
 H          1.4250411910       -0.2872814999        0.5546977737
 C          1.2646854781        0.6623532624        0.0721814014
 C          0.0666484717        1.3404645693        0.2235231613
 C         -0.1063437420        2.5475946709       -0.4497383406
 C          0.8945130309        3.0592942434       -1.2518205992
 C          2.0980602822        2.3890178074       -1.3840045630
 C          2.2776773213        1.1804974648       -0.7227185293
 N          3.4763221771        0.4622471690       -0.8560607958
 S          4.0465888423       -0.4035021823        0.4741078776
 O          3.4365200507       -1.7090494914        0.4913138520
 O          3.8987351522        0.3847195668        1.6776174984
 C          5.7715995716       -0.5535671774        0.0447773467
 C          6.1524342145       -1.5459505562       -0.8388398250
 C          7.4871196458       -1.6466361041       -1.1979910348
 C          8.4134426686       -0.7583135860       -0.6717322220
 C          8.0166130138        0.2315032288        0.2147369319
 C          6.6830683900        0.3386569240        0.5772231798
 H          6.3295780642        1.0861747513        1.2690691322
 H          8.7394285862        0.9184777133        0.6244449591
 H          9.4516606775       -0.8401409523       -0.9522106876
 H          7.7997059294       -2.4164645926       -1.8849062602
 H          5.3985556405       -2.2180845218       -1.2147526030
 H          4.2093204728        0.9928238974       -1.3059942515
 H          2.8848051031        2.7908689051       -2.0044337385
 H          0.7427026544        3.9939537908       -1.7707244037
 H         -1.0440849642        3.0757011608       -0.3390196817
 C         -1.0538882309        0.8282659528        1.0916450590
 H         -1.3747598176        1.6556964063        1.7478393295
 C         -0.6193153353       -0.3049490638        2.0090268996
 C         -1.6194262000       -1.2535391766        2.5967102488
 C         -0.6354112338       -1.7391891015        1.5771122717
 H          0.1757046951       -2.3770278590        1.8985141503
 H         -0.9863715526       -1.9575840499        0.5804563441
 H         -2.6507725579       -1.1398873155        2.2956525598
 H         -1.4942598768       -1.5615200123        3.6238036592
 H          0.2002909330       -0.0065087528        2.6575136324
 O         -3.6563815178        1.6763704672        1.7789436776
