  62
        -98.93957413
 C         -2.2766854623       -0.8958168584        0.6402207225
 C         -3.4184698855       -0.8844955219       -0.1984351923
 C         -4.4238873510        0.1485627769        0.0970336518
 C         -4.2158746259        1.0108661568        1.1073653664
 C         -5.1284377381        2.1449530946        1.4726732575
 C         -4.7404191974        3.4332944158        0.7335995584
 C         -4.5419212277        3.2476767241       -0.7708397773
 H         -4.3020619249        4.2274475356       -1.1897283541
 H         -3.6732532108        2.6063158175       -0.9385158577
 C         -5.7558389875        2.6605538816       -1.5044537103
 H         -5.9191555411        3.2301820685       -2.4216555945
 H         -6.6496017301        2.7727255000       -0.8897279135
 C         -5.6016568826        1.1941803078       -1.9115896290
 H         -4.6582018390        1.0598416452       -2.4465123033
 H         -6.4099692973        0.9470704233       -2.6048553980
 C         -5.6546987449        0.1760752245       -0.7657577126
 H         -6.5451218060        0.3506759530       -0.1587732021
 H         -5.7305292883       -0.8202968171       -1.2104244139
 H         -5.5169436643        4.1796287283        0.9109738947
 H         -3.8055693597        3.8072399568        1.1579921748
 H         -6.1536621490        1.8704438265        1.2319191664
 H         -5.0498930600        2.3156049772        2.5476941136
 O         -3.1094978701        0.9703352848        1.8941301491
 C         -2.1229926182        0.0235672301        1.6829449170
 O         -1.1722101022        0.0932678504        2.4896707369
 O         -3.6158640524       -1.6862770437       -1.1489686480
 C         -1.1408805925       -1.8959212055        0.4865373608
 C         -0.1984749294       -1.4877015498       -0.6212176566
 C         -0.5981804008       -1.4775585550       -1.9536774156
 C          0.2888828391       -1.1001398832       -2.9448378906
 C          1.5842879441       -0.7295140533       -2.6307168176
 C          1.9959661718       -0.7423552121       -1.3027882680
 C          1.1029287675       -1.1196992804       -0.3096022077
 H          1.4260655227       -1.1059437073        0.7208598990
 N          3.3226952320       -0.4178187983       -0.9695286043
 S          3.6514772810        0.3599239616        0.4916332121
 O          3.5857227284       -0.6073231949        1.5579114679
 O          2.8234758633        1.5378000138        0.6282053444
 C          5.3512333860        0.8228811324        0.2135414976
 C          5.6600007130        2.1246589909       -0.1318602959
 C          6.9839971395        2.4587300899       -0.3713172808
 C          7.9705309972        1.4901042826       -0.2649952065
 C          7.6452807440        0.1874292225        0.0836570828
 C          6.3241183860       -0.1527111977        0.3260712851
 H          6.0245207230       -1.1482993504        0.6087357194
 H          8.4152048695       -0.5623721958        0.1681820453
 H          8.9997359711        1.7527205509       -0.4521923610
 H          7.2399556587        3.4711821710       -0.6390504273
 H          4.8602075715        2.8450613382       -0.1952753831
 H          3.8149722498        0.0264792820       -1.7331909370
 H          2.2742415155       -0.4349434367       -3.4070050078
 H         -0.0335543727       -1.0904322668       -3.9751693675
 H         -1.6126659755       -1.7500547241       -2.1997819049
 H         -0.5780014519       -1.8469242950        1.4292699674
 C         -1.6201097358       -3.3219433126        0.2919998094
 C         -0.6799416401       -4.4455906399        0.6029954846
 C         -1.8571500087       -4.1840523281        1.4931340513
 H         -2.6847797596       -4.8770379952        1.4742121470
 H         -1.6749752501       -3.7475531915        2.4649563428
 H         -0.6967975636       -5.3209488287       -0.0277435335
 H          0.3015750011       -4.1863359613        0.9719639201
 H         -2.2925657568       -3.4415187734       -0.5465602095
