  62
        -98.93920806
 C          2.1262947328        1.0524384354        0.0641375423
 C          2.8339838234        0.3135910281        1.0375995578
 C          3.5780576068       -0.8718520017        0.5693846828
 C          3.5088602587       -1.2042970399       -0.7333818057
 C          4.2029311020       -2.3365248553       -1.4426306521
 C          5.6947200865       -2.0559448768       -1.6879297730
 C          6.4382894996       -1.4447077049       -0.5031096724
 H          7.4468273271       -1.1911012779       -0.8398888637
 H          5.9488649080       -0.5124164404       -0.2156535767
 C          6.5686813105       -2.3487167225        0.7203139762
 H          7.0966059121       -3.2617900545        0.4363789800
 H          7.1877216381       -1.8202216085        1.4496986807
 C          5.2581307307       -2.7402634449        1.4058250874
 H          5.5153858157       -3.1719417233        2.3775900157
 H          4.7420184597       -3.5188160532        0.8502900512
 C          4.3117202406       -1.5768902666        1.6852781839
 H          4.8547930970       -0.7956413190        2.2292336739
 H          3.5335317509       -1.9208418147        2.3779613500
 H          5.7721169515       -1.3578342971       -2.5249352235
 H          6.1767959661       -2.9897877520       -1.9817669119
 H          4.0667518986       -3.2619699282       -0.8906744648
 H          3.7062043157       -2.4511233513       -2.4087841685
 O          2.7823262042       -0.4801901896       -1.6326248865
 C          2.0752090748        0.6516999706       -1.2705543525
 O          1.4590815664        1.1972944690       -2.2051017361
 O          2.8480811888        0.6264026050        2.2602984170
 C          1.3446945202        2.2818315579        0.4925704208
 C         -0.1250278491        2.0501576225        0.2405915637
 C         -0.9327941708        2.9178030095       -0.4811948170
 C         -2.2659001745        2.6137265602       -0.6998042825
 C         -2.8226260431        1.4513820142       -0.1996156686
 C         -2.0252476911        0.5802040599        0.5317363837
 C         -0.6921645377        0.8873863373        0.7492620042
 H         -0.0695701717        0.2038178074        1.3144912590
 N         -2.5845396838       -0.6005287168        1.0574026586
 S         -3.3632755499       -1.6296131734       -0.0206958993
 O         -3.2891025977       -2.9395577163        0.5905062117
 O         -2.8227372392       -1.5119467148       -1.3554631312
 C         -5.0536432886       -1.0713520136        0.0111783092
 C         -5.6825168182       -0.7136324279       -1.1651630447
 C         -7.0015593357       -0.2894434652       -1.1171323770
 C         -7.6641259254       -0.2319115252        0.0994153208
 C         -7.0184925770       -0.5967901597        1.2716445014
 C         -5.7006135864       -1.0228984156        1.2306563325
 H         -5.1632968994       -1.3183229815        2.1162785768
 H         -7.5369702107       -0.5504351694        2.2157132109
 H         -8.6898140327        0.0997537067        0.1339835404
 H         -7.5047151481       -0.0056104340       -2.0274772918
 H         -5.1240288710       -0.7686681380       -2.0861554832
 H         -1.9372999913       -1.1268957161        1.6274316423
 H         -3.8580970914        1.2089742155       -0.3746052958
 H         -2.8800534774        3.2926015254       -1.2714478353
 H         -0.5165856943        3.8255641993       -0.8854646241
 H          1.4971848311        2.3603384327        1.5793040880
 C          1.8935309935        3.5270220722       -0.1694585154
 C          1.7266874969        4.8632706657        0.4883734788
 C          3.0756438040        4.2126538541        0.4452219708
 H          3.8293030371        4.6249922981       -0.2086806564
 H          3.4728366735        3.7935476587        1.3583029645
 H          1.5558346516        5.7273972237       -0.1354669813
 H          1.2086040856        4.8920555545        1.4348463355
 H          1.8520321057        3.4766011385       -1.2515867691
