  62
        -98.93523712
 C         -1.5750221302       -0.3434952626        0.4382521482
 C         -2.7320011194       -1.0103518506       -0.0247469231
 C         -3.8389756363       -0.1621950881       -0.5184543337
 C         -3.6814492217        1.1735742941       -0.5393013661
 C         -4.6712071526        2.2262003180       -0.9625404124
 C         -5.7658645570        2.4668281983        0.0896481087
 C         -6.3546933298        1.2003932132        0.7055272230
 H         -5.5531212842        0.6191408403        1.1648548041
 H         -7.0336733273        1.5051371284        1.5063805977
 C         -7.1381915278        0.3121790224       -0.2579269389
 H         -7.5727629654       -0.5001090243        0.3304584965
 H         -7.9616523080        0.8877058542       -0.6868338315
 C         -6.3320452336       -0.3089517312       -1.4006031292
 H         -6.1430246028        0.4161783559       -2.1875101028
 H         -6.9508568858       -1.0939716881       -1.8452973557
 C         -5.0282102250       -0.9748593094       -0.9721785944
 H         -5.2377325348       -1.6822016766       -0.1616486761
 H         -4.6628147852       -1.5909476972       -1.8027203850
 H         -5.3316673311        3.0587724933        0.8990404425
 H         -6.5620662214        3.0555822624       -0.3690238900
 H         -4.1062442822        3.1516449756       -1.0938535652
 H         -5.1069134415        1.9657402032       -1.9224752171
 O         -2.5344454487        1.7736005334       -0.1098385388
 C         -1.4707107054        1.0498287434        0.3850504636
 O         -0.4997968069        1.7447719933        0.7460656125
 H          2.0921466100       -0.1892133435        0.3259443390
 C          1.7771360882       -1.0044814292       -0.3070698757
 C          0.5263467281       -1.5732717800       -0.1160246042
 C          0.1220171250       -2.6057848726       -0.9556094731
 C          0.9623887676       -3.0588709742       -1.9556541257
 C          2.2207579194       -2.5085369582       -2.1257016534
 C          2.6312504052       -1.4714425292       -1.2961096078
 N          3.8897964640       -0.8794778340       -1.4597160946
 S          4.7411472683       -0.2746281680       -0.1551636762
 O          6.1124333815       -0.2295404042       -0.6164223323
 O          4.5015451821       -1.0434844426        1.0436653501
 C          4.1408909738        1.3893475453        0.0351131958
 C          4.1529220592        2.2173217859       -1.0696073116
 C          3.7046599325        3.5207203897       -0.9329041437
 C          3.2563555262        3.9721759494        0.2991822539
 C          3.2544006015        3.1298995067        1.3995171068
 C          3.7019119107        1.8251654014        1.2688100838
 H          3.7109194529        1.1358429202        2.0989349940
 H          2.8998887774        3.4809083742        2.3552913228
 H          2.9027791905        4.9857938754        0.4035304872
 H          3.7027172463        4.1801492864       -1.7859926530
 H          4.5105894490        1.8314061788       -2.0097131416
 H          4.4899302882       -1.3199668906       -2.1410125327
 H          2.8803004626       -2.8744289382       -2.8980141687
 H          0.6388874865       -3.8587862448       -2.6046351088
 H         -0.8588930849       -3.0356526989       -0.8248832065
 C         -0.3573379595       -1.0620759373        0.9965492476
 H          0.2121519589       -0.2951165626        1.5393161586
 C         -0.6982891957       -2.1756043199        1.9680346917
 C          0.3841899109       -2.7004990509        2.8610171236
 C         -0.7331479629       -1.8836882787        3.4363109234
 H         -1.4754967410       -2.3804270713        4.0430064123
 H         -0.5161150169       -0.8734390252        3.7522810503
 H          0.4091825428       -3.7585263059        3.0728098309
 H          1.3622049814       -2.2479630220        2.7813394904
 H         -1.4213500241       -2.8814523178        1.5822592932
 O         -2.8742433982       -2.2624945071       -0.0332563832
