  62
        -98.93677572
 C         -2.5684476042       -0.0599446740       -0.0685912345
 C         -2.3262995761       -1.1398050937       -0.9452354066
 C         -1.8082802870       -2.3862073265       -0.3511321564
 C         -1.5746433440       -2.4209501207        0.9740482206
 C         -1.0196722459       -3.5528396731        1.7987018525
 C          0.4982702885       -3.7154421593        1.6355145449
 C          0.9926947908       -3.6890437469        0.1923592838
 H          2.0841531176       -3.7537855291        0.2216124334
 H          0.7427481533       -2.7193387328       -0.2426295265
 C          0.4811808750       -4.8196788128       -0.6980113786
 H          0.7555538982       -5.7769433374       -0.2491446428
 H          1.0051306543       -4.7386854779       -1.6537895563
 C         -1.0225285133       -4.8301313067       -0.9858227651
 H         -1.5827758754       -5.2487565547       -0.1540748396
 H         -1.1850476412       -5.4981385899       -1.8367267996
 C         -1.6043532068       -3.4758482439       -1.3765637365
 H         -2.5891401608       -3.6353459753       -1.8322583434
 H         -0.9891187767       -3.0353158155       -2.1697014762
 H          0.7977180508       -4.6503557596        2.1137062707
 H          0.9848087405       -2.8890779413        2.1608934281
 H         -1.5346854113       -4.4794751522        1.5625159255
 H         -1.2314553583       -3.3089797220        2.8424102940
 O         -1.8099949481       -1.3472994958        1.7818419348
 C         -2.2702910189       -0.1424114605        1.2911976614
 O         -2.3904304017        0.7538711917        2.1498183426
 O         -2.5240015595       -1.0679061492       -2.1909300510
 C         -3.0121937598        1.2762237235       -0.6435317541
 C         -1.8770824115        2.2473370976       -0.4302662325
 C         -1.9912429622        3.4660422585        0.2239310535
 C         -0.8648043870        4.2269740492        0.4925337117
 C          0.3954523297        3.7860569928        0.1298195662
 C          0.5115906315        2.5866880282       -0.5559830857
 C         -0.6157320731        1.8427445626       -0.8499480143
 H         -0.5090395913        0.8956016941       -1.3650006049
 N          1.8091707560        2.0704065257       -0.8629847284
 S          2.2262174996        0.9563162153        0.3513775870
 O          1.4389194702       -0.2506476629        0.2184798562
 O          2.1562971329        1.6425668920        1.6166081475
 C          3.9290886004        0.6168273054       -0.0568153619
 C          4.2811290899       -0.6139141977       -0.5748799754
 C          5.6063562842       -0.8454756426       -0.9103109671
 C          6.5490625526        0.1543766657       -0.7269910965
 C          6.1791496821        1.3862539523       -0.2071053558
 C          4.8568805994        1.6231156122        0.1319126165
 H          4.5219814013        2.5599992170        0.5446538232
 H          6.9154933006        2.1607932506       -0.0656499680
 H          7.5789827563       -0.0281395804       -0.9900162279
 H          5.8959659026       -1.8027303797       -1.3130303826
 H          3.5129993696       -1.3613554528       -0.6962882970
 H          1.7866610525        1.5483990983       -1.7318056801
 H          1.2830338410        4.3424546605        0.3818987801
 H         -0.9698628452        5.1641331320        1.0177917195
 H         -2.9597522694        3.8080011220        0.5509633481
 H         -3.1337462810        1.1074058565       -1.7236435333
 C         -4.3313765693        1.7300001834       -0.0611629071
 C         -5.1956897686        2.6876684142       -0.8246292217
 C         -5.6060024973        1.2532143573       -0.6881554019
 H         -6.4371168691        1.0114103483       -0.0431459966
 H         -5.5235806582        0.6114957303       -1.5531801765
 H         -5.7495616320        3.4327128004       -0.2740913772
 H         -4.8388576270        3.0232252668       -1.7864930085
 H         -4.3033396754        1.8105903360        1.0194197213
