  62
        -98.94017169
 C         -2.2520364590       -0.9618533715        0.4350686821
 C         -2.3155559301        0.1002568949       -0.5011705978
 C         -3.2300962992        1.1983890052       -0.1544666612
 C         -3.8838152111        1.1865267972        1.0201728400
 C         -4.8362178332        2.2398106736        1.5172026608
 C         -6.2700341163        2.0785055031        0.9934961929
 C         -6.4687553627        2.4333753893       -0.4807481441
 H         -7.5453791346        2.4863561840       -0.6541327590
 H         -6.0590946481        3.4255727920       -0.6725441505
 C         -5.8601750748        1.4239563519       -1.4643188015
 H         -5.6584983098        0.4845590145       -0.9442088201
 H         -6.5829942560        1.2028132762       -2.2527986985
 C         -4.5767641295        1.8982433455       -2.1462771362
 H         -4.7950925391        2.7631504883       -2.7763871312
 H         -4.2149122381        1.0944181938       -2.7924562744
 C         -3.4478881043        2.2726449778       -1.1768321605
 H         -2.5229199812        2.3771638254       -1.7492462776
 H         -3.6688805866        3.2225568351       -0.6906579672
 H         -6.5915426404        1.0488496960        1.1673476102
 H         -6.9101759513        2.7310862300        1.5916987194
 H         -4.8551444783        2.1533653754        2.6058540294
 H         -4.4599950511        3.2287545126        1.2537659504
 O         -3.7274871098        0.1886577013        1.9319418179
 C         -2.9248456730       -0.9073972013        1.6578728142
 O         -2.8793114775       -1.7483757711        2.5792203651
 H          0.2754250998       -0.5604239873        1.4661156458
 C          0.7156926087       -0.8966565869        0.5339240751
 C         -0.0134311889       -1.7527331376       -0.2834340523
 C          0.5617121270       -2.1808886978       -1.4717850495
 C          1.8259160205       -1.7478275478       -1.8325321683
 C          2.5408814924       -0.8847803720       -1.0234994410
 C          1.9778370789       -0.4544431918        0.1710925910
 N          2.6916987709        0.4355880415        0.9941180884
 S          4.2679971035        0.0351408770        1.4111297194
 O          4.4602998414       -1.3966214421        1.4379007575
 O          4.5216437763        0.7405256531        2.6487650812
 C          5.2531331213        0.7608079537        0.1180442765
 C          6.1149067343       -0.0283632405       -0.6182050566
 C          6.8766772939        0.5614397664       -1.6150207811
 C          6.7646125284        1.9223064811       -1.8553347008
 C          5.8965877518        2.7013680464       -1.1046515754
 C          5.1326161401        2.1181631595       -0.1065271024
 H          4.4486976544        2.6876334233        0.5005825096
 H          5.8122376824        3.7593951955       -1.2940515120
 H          7.3572820614        2.3790281834       -2.6321593076
 H          7.5522026797       -0.0421773067       -2.1995472225
 H          6.1644795437       -1.0830625427       -0.3990377654
 H          2.1763815306        0.7365635914        1.8085533470
 H          3.5215552098       -0.5392653100       -1.3068275079
 H          2.2578472603       -2.0820505299       -2.7635032872
 H          0.0123969454       -2.8355535109       -2.1278727751
 C         -1.3796054172       -2.1816498521        0.1947685775
 H         -1.2517597976       -2.6396338636        1.1903249546
 C         -2.0243973889       -3.2415210062       -0.6864435926
 C         -3.5150653579       -3.3851336224       -0.7537286658
 C         -2.7545010214       -2.9000185464       -1.9491464667
 H         -2.6538331006       -3.5652025016       -2.7943032535
 H         -2.8239926380       -1.8585207811       -2.2187781198
 H         -4.1115585825       -2.6741219751       -0.2001144339
 H         -3.9335589407       -4.3802538079       -0.7748057584
 H         -1.4556049871       -4.1664011119       -0.6858199689
 O         -1.6534263121        0.1443798096       -1.5682666774
