  62
        -98.93457596
 C         -2.6652844812       -0.4828280709       -0.2725409719
 C         -2.0885943308       -1.2011229663        0.8018169409
 C         -1.2970515149       -2.4030038801        0.4527745077
 C         -1.2202773039       -2.7882341440       -0.8328717223
 C         -0.4818224821       -3.9581139891       -1.4315753073
 C          1.0302550459       -3.7235450997       -1.5335114248
 C          1.6827077634       -3.2144407081       -0.2517575285
 H          2.7468313977       -3.0683011171       -0.4596057043
 H          1.2729038503       -2.2325873351       -0.0065375730
 C          1.5650365418       -4.1422914248        0.9558835522
 H          1.9588841291       -5.1264879710        0.6921850894
 H          2.2032348633       -3.7243164200        1.7383939218
 C          0.1601469050       -4.3129424926        1.5433625718
 H         -0.4191486755       -5.0502674484        0.9928136677
 H          0.2784175379       -4.7054157317        2.5573939478
 C         -0.6336848826       -3.0162787354        1.6617290628
 H         -1.4369952620       -3.1561665218        2.3948010463
 H          0.0088128429       -2.2324153538        2.0827075142
 H          1.2074483387       -2.9777953435       -2.3126189923
 H          1.5019212610       -4.6596127463       -1.8402724400
 H         -0.6902947077       -4.8642566830       -0.8702281859
 H         -0.8814109054       -4.0896525633       -2.4400630252
 O         -1.8544804732       -2.1023610361       -1.8295829801
 C         -2.5233434402       -0.9217753209       -1.5896249319
 O         -2.9773937708       -0.3695414353       -2.6148708708
 H         -0.7885168798        0.9319238025        0.7685399577
 C         -1.0237798761        1.7885069846        0.1561781005
 C         -2.3012979551        1.9448956782       -0.3596532129
 C         -2.5719613179        3.0692513417       -1.1306028780
 C         -1.5803529983        4.0010148640       -1.3855892903
 C         -0.2937294305        3.8113393562       -0.9132585125
 C         -0.0142519500        2.6890069500       -0.1425410328
 N          1.2793935013        2.4149711370        0.3358064530
 S          1.7492562340        0.7856855812        0.2277495827
 O          1.2334611125        0.2121802167       -0.9938027385
 O          1.4066808531        0.1209056371        1.4587195154
 C          3.5215474823        0.9638679119        0.1312618378
 C          4.2291692020        1.1880038537        1.2973673306
 C          5.6012511745        1.3680596383        1.2240910637
 C          6.2392783809        1.3214526445       -0.0067333205
 C          5.5164319908        1.0916893962       -1.1677256486
 C          4.1432962546        0.9130365273       -1.1016656004
 H          3.5397419525        0.7246694148       -1.9752551845
 H          6.0153017130        1.0510377931       -2.1225311594
 H          7.3071672959        1.4618320854       -0.0614576592
 H          6.1666240807        1.5432215659        2.1250714184
 H          3.6901352586        1.2056726295        2.2302214310
 H          1.9805745123        3.0274350918       -0.0597218096
 H          0.4882723058        4.5181834464       -1.1458393504
 H         -1.8042196161        4.8702495640       -1.9852041502
 H         -3.5578376712        3.1964606181       -1.5533098073
 C         -3.3376626592        0.8732273956       -0.1205474306
 H         -4.0712274821        0.9374166749       -0.9412040373
 C         -4.0943197161        1.0568100948        1.1853252206
 C         -3.5763800884        1.8900062155        2.3148276757
 C         -4.7372149249        2.3749585214        1.5027237499
 H         -5.7189078321        2.3729180057        1.9513489807
 H         -4.5614933318        3.1937662438        0.8219439872
 H         -3.7484438253        1.5331954823        3.3185093891
 H         -2.6207582771        2.3752423847        2.1874622174
 H         -4.6472761981        0.1650910068        1.4601252143
 O         -2.2104864509       -0.8802675550        2.0126471069
