  62
        -98.94052486
 C          2.3483831254       -0.1152873381       -0.2677526862
 C          3.4950273073       -0.3962358114       -1.0481808067
 C          4.7323192954        0.2810164348       -0.6391530690
 C          4.7042198675        1.1218730855        0.4112775977
 C          5.9006960571        1.8370034061        0.9676888549
 C          6.5775686592        1.0123252215        2.0715374256
 C          6.8400839192       -0.4426453395        1.6829182711
 H          7.3464351710       -0.9180721573        2.5257845795
 H          5.8838558858       -0.9546859305        1.5526971683
 C          7.6853081275       -0.6181575003        0.4135709300
 H          8.2129475066        0.3093024028        0.1884920377
 H          8.4408879973       -1.3843985458        0.5992163301
 C          6.8942484424       -1.0623006270       -0.8181386782
 H          6.2899418256       -1.9383694792       -0.5693415442
 H          7.6072551608       -1.3651949339       -1.5895473076
 C          5.9739699012       -0.0027117904       -1.4371534352
 H          6.5370559561        0.9158294124       -1.6141247495
 H          5.6281180360       -0.3858591010       -2.4017154737
 H          7.5197646227        1.4963068018        2.3350388684
 H          5.9328605023        1.0197660263        2.9534132898
 H          6.6061334520        2.0344075821        0.1629212613
 H          5.5674563084        2.7868889542        1.3888637018
 O          3.5779180573        1.3836698023        1.1231140260
 C          2.3743093752        0.7690272808        0.8104495664
 O          1.4256821066        1.0909725438        1.5505498245
 H         -1.5586347148       -0.6296221288        0.3252361028
 C         -1.2980533647        0.1600518834       -0.3590683002
 C         -0.0305259886        0.2281729975       -0.9135614088
 C          0.2552480251        1.2683351910       -1.7952482968
 C         -0.6998741887        2.2170741975       -2.1023875308
 C         -1.9676529297        2.1408070053       -1.5521638666
 C         -2.2639747453        1.1069638569       -0.6730828322
 N         -3.5334171268        1.0107531180       -0.0805447037
 S         -4.1797121175       -0.5267235532        0.1823133286
 O         -3.6815461941       -1.0413651510        1.4327999208
 O         -3.9672286874       -1.3574702914       -0.9814794471
 C         -5.9102370329       -0.1257402744        0.3454598769
 C         -6.3788621646        0.3145266677        1.5689564023
 C         -7.7168965050        0.6540660832        1.6908277212
 C         -8.5592724828        0.5493664865        0.5938005084
 C         -8.0751593392        0.1040110217       -0.6270569420
 C         -6.7377691558       -0.2363177460       -0.7561782631
 H         -6.3194696893       -0.5964294027       -1.6823448603
 H         -8.7332422008        0.0200198244       -1.4768505327
 H         -9.6003145232        0.8136326644        0.6919978560
 H         -8.0973493971        0.9976371332        2.6391942843
 H         -5.6889090729        0.3710625413        2.3948522659
 H         -4.2103345117        1.6365861171       -0.4951380115
 H         -2.7161525822        2.8796869998       -1.7950701752
 H         -0.4597981161        3.0193090993       -2.7840780210
 H          1.2425698121        1.3227662649       -2.2340718484
 C          1.0384573466       -0.7948519877       -0.6190960139
 H          1.2368838004       -1.3530557285       -1.5471415108
 C          0.6486869887       -1.7797794803        0.4628369507
 C         -0.2022612101       -2.9678584215        0.1312512730
 C          1.2490000085       -3.1523917866        0.4555516816
 H          1.5138338107       -3.6048070280        1.3994192299
 H          1.9260899169       -3.3924792962       -0.3513068029
 H         -0.5169764679       -3.0857843900       -0.8950155910
 H         -0.9420409391       -3.2867375042        0.8508042174
 H          0.5012524181       -1.3026297886        1.4261525813
 O          3.4820925591       -1.1712466990       -2.0426787466
