  62
        -98.94623230
 C         -1.7796754609       -1.3105123784       -0.0716991826
 C         -2.8034852507       -0.6979791206        0.6870407025
 C         -3.3283838548        0.5668489658        0.1536494038
 C         -2.8192238768        1.0600910617       -0.9903710935
 C         -3.2004096126        2.3789539713       -1.5981060631
 C         -2.2965166549        3.5102256907       -1.0858455421
 C         -2.1301820662        3.5277627013        0.4335437770
 H         -1.4821412575        4.3714426207        0.6824765658
 H         -1.6079466138        2.6200937604        0.7471579662
 C         -3.4481749301        3.6462849368        1.2120743688
 H         -4.2364701453        4.0080888303        0.5509511511
 H         -3.3226834857        4.3885062696        2.0033237378
 C         -3.9075425158        2.3509415994        1.8838934343
 H         -4.7251375870        2.5943607871        2.5676239216
 H         -3.0922476635        1.9404406309        2.4858186922
 C         -4.4110413937        1.2521279558        0.9390904924
 H         -5.1722718791        1.6615355272        0.2721491628
 H         -4.8743902491        0.4746635591        1.5537861253
 H         -2.7133966458        4.4631056570       -1.4164946392
 H         -1.3065327563        3.4016051615       -1.5345345308
 H         -4.2395167454        2.5965710506       -1.3590978129
 H         -3.0959523690        2.3035389453       -2.6816424448
 O         -1.8491291833        0.4325857396       -1.7017811213
 C         -1.2941894793       -0.7612231449       -1.2595536179
 O         -0.4015587876       -1.2173971886       -1.9939400081
 O         -3.2462086204       -1.1754093896        1.7675567300
 C         -1.1291877221       -2.5807484061        0.4464518674
 C          0.3488899138       -2.3360974351        0.6307663455
 C          1.3369474342       -3.2000424594        0.1791557085
 C          2.6752969183       -2.8810036565        0.3388656888
 C          3.0575546819       -1.7004743144        0.9479508786
 C          2.0760978677       -0.8358050149        1.4158294428
 C          0.7389053518       -1.1617312490        1.2637968886
 H         -0.0217543338       -0.4810716469        1.6273666967
 N          2.4510905252        0.3816040170        2.0191263412
 S          3.4643108673        1.3656125051        1.1139201926
 O          4.8228503486        0.9077739285        1.2644462138
 O          3.1971499815        2.7104116975        1.5743595509
 C          2.9398200581        1.1615664438       -0.5777073637
 C          1.7000627939        1.6477442429       -0.9430108849
 C          1.2659041893        1.4641268997       -2.2446435582
 C          2.0701795819        0.7926708903       -3.1516513729
 C          3.3111551425        0.3099308103       -2.7695738986
 C          3.7531596832        0.4939649376       -1.4694990429
 H          4.7112202305        0.1354234710       -1.1302679388
 H          3.9317254935       -0.2148971715       -3.4779458512
 H          1.7184397167        0.6397802221       -4.1593806902
 H          0.2938662789        1.8210414371       -2.5452251149
 H          1.0970210061        2.1653590247       -0.2122563197
 H          1.6640674528        0.9166351762        2.3573224005
 H          4.0940555675       -1.4289760267        1.0661553312
 H          3.4319152539       -3.5590096972       -0.0250503042
 H          1.0606381238       -4.1190634106       -0.3106020713
 H         -1.5784912678       -2.7628974959        1.4341019398
 C         -1.4441307477       -3.7542568273       -0.4561526586
 C         -1.4964315827       -5.1442662241        0.1020149515
 C         -2.7616789875       -4.4509422083       -0.3024028347
 H         -3.2750554147       -4.7863262238       -1.1909904621
 H         -3.4229215440       -4.0949441753        0.4742553056
 H         -1.1429651580       -5.9599044861       -0.5105055280
 H         -1.3020283146       -5.2682061298        1.1566633095
 H         -1.0641647556       -3.6178724362       -1.4621947858
