  62
        -98.94108496
 C          2.6854768203        1.0989448511       -0.3964996008
 C          2.0954982108       -0.0023896393       -1.0640913707
 C          2.8540805715       -1.2589817488       -1.0129510508
 C          4.0527776217       -1.2981230281       -0.4044648910
 C          4.9541688724       -2.4977028576       -0.2958274911
 C          4.6157498631       -3.4253890777        0.8790876590
 C          3.3383024436       -4.2488761185        0.7098169893
 H          3.3697769737       -4.7754970085       -0.2444465807
 H          3.3360246942       -5.0033330984        1.4989291893
 C          2.0413073031       -3.4325791592        0.8061805695
 H          2.2482734827       -2.4670226491        1.2747359694
 H          1.3284293035       -3.9487598696        1.4535502597
 C          1.3396932127       -3.1910182897       -0.5305830804
 H          1.0003129532       -4.1445280399       -0.9419016703
 H          0.4566914824       -2.5735472902       -0.3404379402
 C          2.2086482321       -2.4862703592       -1.5813457406
 H          2.9627956324       -3.1725323988       -1.9658744907
 H          1.5642277218       -2.1727418696       -2.4060581605
 H          4.5427123430       -2.8248661177        1.7888297090
 H          5.4536964136       -4.1153029872        1.0021020789
 H          4.9261045825       -3.0633198276       -1.2273616711
 H          5.9662119222       -2.1139676370       -0.1506778813
 O          4.6068717412       -0.2055395478        0.1852927889
 C          3.9223021605        0.9961456718        0.2454047389
 O          4.5173878801        1.8921296222        0.8771812288
 H         -0.6152660702        1.7953946192       -0.9446146202
 C         -0.4676826000        1.8555310293        0.1218153498
 C          0.7745854999        2.2085705500        0.6246720195
 C          0.9472854201        2.2505356802        2.0052904395
 C         -0.0970259196        1.9404699696        2.8564670797
 C         -1.3308916694        1.5685159689        2.3507122599
 C         -1.5095156097        1.5168389688        0.9753042700
 N         -2.7564741196        1.1228969880        0.4428711502
 S         -3.3682771186       -0.3422239623        1.0281489304
 O         -3.9437376185       -0.1036175726        2.3289627505
 O         -2.3579150980       -1.3750814617        0.9671057303
 C         -4.6640256087       -0.6571093231       -0.1536447393
 C         -5.8979017790       -0.0653220538        0.0378546109
 C         -6.8959347590       -0.2807384944       -0.8990348089
 C         -6.6442903488       -1.0783980743       -2.0054721489
 C         -5.4006725385       -1.6657480836       -2.1836090791
 C         -4.3973802984       -1.4532629530       -1.2510342693
 H         -3.4174041782       -1.8940630124       -1.3465085895
 H         -5.2077280183       -2.2866806035       -3.0436906491
 H         -7.4223520088       -1.2455501948       -2.7334837787
 H         -7.8645594093        0.1727055450       -0.7639091187
 H         -6.0484229991        0.5392968661        0.9167016709
 H         -2.7129879497        1.0794061980       -0.5678482998
 H         -2.1450600792        1.2951810585        3.0021814001
 H          0.0516462506        1.9776670098        3.9254858397
 H          1.9198517900        2.5082138408        2.4022591593
 C          1.9643695295        2.4335968707       -0.2765736307
 H          2.6609271693        3.1092004011        0.2366731591
 C          1.6156988289        3.0247734804       -1.6260476607
 C          1.1991928381        4.4618540202       -1.7069996507
 C          2.5338910282        4.0369623909       -2.2392858609
 H          2.6809727180        4.0162182610       -3.3087039810
 H          3.4184204782        4.3110177115       -1.6829691111
 H          1.1764894780        5.0247123102       -0.7860722907
 H          0.4289468178        4.7376901997       -2.4107232305
 H          1.1429031892        2.3195802001       -2.2973876806
 O          0.9998889506        0.0450720601       -1.6824171804
