  62
        -98.93797606
 C         -1.5717325186       -1.6716063439        0.1308440840
 C         -1.4712177812       -0.3465766807       -0.3575697015
 C         -2.5466071760        0.5690755532        0.0538046887
 C         -3.5191860081        0.1343517013        0.8743960898
 C         -4.6570647219        0.9469388380        1.4341227294
 C         -5.6833736166        1.4772314162        0.4142411201
 C         -5.4015333968        2.8995973276       -0.0856434801
 H         -6.3479446064        3.4392183827       -0.1594777287
 H         -4.8018224982        3.4214446406        0.6609582819
 C         -4.7205312329        3.0034274808       -1.4537137980
 H         -5.4631508867        2.8278935809       -2.2355117774
 H         -4.3581351813        4.0271008447       -1.5699730331
 C         -3.5617781135        2.0361624871       -1.6970043894
 H         -3.0484085748        2.3433003321       -2.6103046255
 H         -3.9542762044        1.0342792470       -1.8866377949
 C         -2.5456291314        1.9465108717       -0.5418028921
 H         -1.5356499097        2.1160992576       -0.9187274175
 H         -2.7642323846        2.6933055441        0.2194954312
 H         -5.7546186512        0.7847882025       -0.4241522577
 H         -6.6533472838        1.4783645987        0.9141566898
 H         -5.1656286613        0.2863188262        2.1393018249
 H         -4.2443993899        1.7845276649        2.0009315917
 O         -3.5588428179       -1.1421570972        1.3472680219
 C         -2.6016793180       -2.0722679955        0.9839735425
 O         -2.7697260461       -3.2042796517        1.4809908797
 H          1.6283270429       -1.5710989834       -1.5093511863
 C          1.7778515481       -1.6791283108       -0.4473052151
 C          0.7961374319       -2.2661768316        0.3338858195
 C          1.0103367695       -2.3731811773        1.7053759723
 C          2.1807136809       -1.9099907750        2.2760188930
 C          3.1559324776       -1.3149574215        1.4937633616
 C          2.9436318884       -1.1897439323        0.1277903174
 N          3.9171470916       -0.5668593034       -0.6777453326
 S          4.4346625923        0.9650273629       -0.2444363825
 O          5.1133460938        1.4769107650       -1.4136170450
 O          5.2259622847        0.8722657004        0.9572762259
 C          2.9579609568        1.9123309709        0.0711291415
 C          2.4450837779        1.9672368092        1.3510356968
 C          1.2784786256        2.6806214082        1.5726599518
 C          0.6515764636        3.3255946176        0.5186245687
 C          1.1788791408        3.2592011757       -0.7614020294
 C          2.3397450355        2.5406373665       -0.9909132427
 H          2.7844754358        2.4697121031       -1.9705986936
 H          0.6867814588        3.7598305278       -1.5800551070
 H         -0.2542667648        3.8836610062        0.6959998850
 H          0.8613702116        2.7291669179        2.5659922146
 H          2.9664863228        1.4632980100        2.1480681722
 H          3.6764362188       -0.5733674469       -1.6590065153
 H          4.0705643258       -0.9377959567        1.9220719320
 H          2.3359618108       -2.0085757923        3.3399118834
 H          0.2388111977       -2.8186042267        2.3188006028
 C         -0.5275564717       -2.7151389376       -0.2328918599
 H         -0.8275094455       -3.6373232499        0.2823309709
 C         -0.5077354328       -2.9740298986       -1.7246292696
 C          0.1600857630       -4.2079934920       -2.2505267800
 C         -1.3337298121       -4.0920877148       -2.2823880358
 H         -1.8201269948       -3.9474386070       -3.2355265475
 H         -1.9093584061       -4.6835916580       -1.5853541190
 H          0.6997896989       -4.1475013846       -3.1833873903
 H          0.6012947124       -4.8804068015       -1.5304004042
 H         -0.4427256595       -2.0682561305       -2.3151770005
 O         -0.5399221402        0.0614547512       -1.0986541805
