  62
        -98.93830090
 C         -2.1819825957       -0.8687925223       -0.0701603570
 C         -2.9187381925       -0.2007437069        0.9331990094
 C         -3.7590750480        0.9274243575        0.4954123640
 C         -3.7716223915        1.2750675314       -0.8053419208
 C         -4.4940266068        2.3927789841       -1.5284221621
 C         -5.6596704730        3.1264373274       -0.8695928886
 C         -6.9045625492        2.2722607938       -0.6338774239
 H         -7.6320454758        2.8753138794       -0.0861098174
 H         -7.3430050073        2.0208214882       -1.6028162954
 C         -6.6746592878        0.9654037630        0.1211891407
 H         -6.0397356612        0.3046180748       -0.4726012459
 H         -7.6422365352        0.4680796196        0.2303501075
 C         -6.0693721386        1.1130756864        1.5160069128
 H         -6.1183058301        0.1342221885        2.0006260627
 H         -6.6695824905        1.8080812156        2.1063066591
 C         -4.6015663886        1.5746376268        1.5565262592
 H         -4.5245227366        2.6580682482        1.5004077256
 H         -4.1767847182        1.2661180786        2.5164770892
 H         -5.9396878970        3.9360237619       -1.5491127872
 H         -5.3380648543        3.5919629974        0.0574215731
 H         -4.8336311807        1.9603088793       -2.4747780721
 H         -3.7238553307        3.1285780146       -1.7854236281
 O         -3.0102786336        0.6227874465       -1.7324600930
 C         -2.2102985314       -0.4591712314       -1.4019506755
 O         -1.5896564680       -0.9516765500       -2.3616591011
 O         -2.8708039874       -0.5251799906        2.1517611992
 C         -1.3224466911       -2.0589771360        0.3101602988
 C          0.1264071317       -1.8076970041       -0.0299959164
 C          0.9486007200       -2.7669294136       -0.6064375817
 C          2.2777498859       -2.4846948318       -0.8713244141
 C          2.8161179773       -1.2483372332       -0.5677896450
 C          2.0067326936       -0.2849169817        0.0203180380
 C          0.6778818214       -0.5726754639        0.2893294488
 H          0.0503043227        0.1797199369        0.7526765507
 N          2.5457607385        0.9786263029        0.3272520934
 S          3.9223482735        1.0209481754        1.2912646006
 O          3.9755719271       -0.1137906724        2.1840896580
 O          3.9089308234        2.3274394468        1.9127623049
 C          5.2680951503        0.9457170405        0.1283255417
 C          6.2208781038       -0.0476145326        0.2428237317
 C          7.2669226103       -0.0803050737       -0.6663217314
 C          7.3411966131        0.8759173379       -1.6675229787
 C          6.3772299398        1.8683498559       -1.7671760754
 C          5.3297967138        1.9077358174       -0.8607817186
 H          4.5626670922        2.6630542185       -0.9012388543
 H          6.4382293027        2.6100543674       -2.5472596264
 H          8.1551509887        0.8481720681       -2.3746165808
 H          8.0174276763       -0.8505953791       -0.5904194177
 H          6.1180451749       -0.7728684602        1.0340908898
 H          1.8600038440        1.6344721573        0.6731361137
 H          3.8483192197       -1.0225132288       -0.7798961764
 H          2.9023696805       -3.2388056029       -1.3250671165
 H          0.5481764542       -3.7367537904       -0.8515678089
 H         -1.4013056276       -2.1386063375        1.4054625494
 C         -1.8793252371       -3.3239546190       -0.3099638387
 C         -1.7181791939       -4.6435017377        0.3820635896
 C         -3.0617120528       -3.9821297029        0.3335662211
 H         -3.8256607222       -4.4056198917       -0.3009994422
 H         -3.4458194389       -3.5337029192        1.2384251795
 H         -1.5618369658       -5.5258722472       -0.2199762105
 H         -1.1926703062       -4.6528584706        1.3251248049
 H         -1.8463440062       -3.3031526633       -1.3935496895
