  62
        -98.93913483
 C         -0.9686363986       -1.2084355211        0.5038655591
 C         -1.4501746488       -0.0227471816        1.1093880998
 C         -2.2468039497        0.8788149384        0.2606377806
 C         -2.4282453303        0.5633877388       -1.0329481494
 C         -3.2492580712        1.3158270088       -2.0430932386
 C         -4.6740415410        0.7407210181       -2.1168669481
 C         -5.6594310107        1.3301334573       -1.1078144373
 H         -5.9005519414        2.3541726973       -1.4005169968
 H         -6.5795806104        0.7451700868       -1.1748055770
 C         -5.1863826799        1.3369418869        0.3485833124
 H         -6.0700113296        1.4124477562        0.9852090130
 H         -4.7000299593        0.3881675271        0.5822224518
 C         -4.2425444403        2.5043244872        0.6729931324
 H         -4.2944774011        3.2342464975       -0.1350328473
 H         -4.5956464500        3.0119426567        1.5727837328
 C         -2.7742319600        2.1217551179        0.9249460214
 H         -2.6206496693        1.9481293375        1.9946220413
 H         -2.1364766705        2.9668716783        0.6439880314
 H         -5.0707164716        0.9148150883       -3.1192014378
 H         -4.6047926004       -0.3413266119       -1.9773680085
 H         -3.2648191216        2.3773811587       -1.8127556282
 H         -2.7605241917        1.1733871994       -3.0095566190
 O         -1.9095462300       -0.5617265707       -1.5913043501
 C         -1.1478141292       -1.4583365406       -0.8585305109
 O         -0.7173456391       -2.4163308902       -1.5271303615
 O         -1.2224037683        0.2749484681        2.3130683798
 C         -0.0912777876       -2.1212828910        1.3451050083
 C          1.2068964021       -2.3416824101        0.6107917174
 C          1.7252989025       -3.5838462597        0.2746824767
 C          2.8977086321       -3.6716306188       -0.4572891040
 C          3.5586417013       -2.5348486183       -0.8846023339
 C          3.0483903609       -1.2857159487       -0.5473841332
 C          1.9030219513       -1.2033192496        0.2231060375
 H          1.5078512910       -0.2336630699        0.4868582081
 N          3.6779055701       -0.1002665682       -0.9568040930
 S          2.7454350592        1.2361934515       -1.3470638420
 O          1.4760673191        0.8710471111       -1.9319771914
 O          3.6176706784        2.0437297922       -2.1756238222
 C          2.5054018797        2.0668890407        0.2088823485
 C          3.6175972199        2.3750468410        0.9672888080
 C          3.4407170403        3.0199529004        2.1806541383
 C          2.1628485004        3.3423098696        2.6128577192
 C          1.0567202601        3.0314734394        1.8372415496
 C          1.2282213697        2.3903580700        0.6208921993
 H          0.3919949395        2.1160259398       -0.0054700803
 H          0.0609309002        3.2660220488        2.1775673703
 H          2.0242927307        3.8365388892        3.5614214094
 H          4.2971917305        3.2647776206        2.7878788179
 H          4.5923333599        2.1061709816        0.5962170873
 H          4.4477220498       -0.2239349276       -1.5982775235
 H          4.4538891310       -2.6087875276       -1.4831747445
 H          3.2898356525       -4.6424713185       -0.7204630846
 H          1.1992073731       -4.4810773800        0.5566702366
 H          0.1286497326       -1.5236473212        2.2462413984
 C         -0.7549597767       -3.3996685315        1.8296469281
 C         -2.2413997566       -3.4746437223        2.0068691889
 C         -1.5731009868       -4.2799760715        0.9351377082
 H         -1.5031406462       -5.3496745416        1.0697805278
 H         -1.6922529375       -3.9762094012       -0.0925409116
 H         -2.6320466459       -3.9881947928        2.8725111689
 H         -2.8222274172       -2.6135236525        1.7090979796
 H         -0.1578953561       -3.9003948815        2.5857848476
