  62
        -98.94228703
 C         -1.8713125499        0.6031039638       -0.1478406520
 C         -2.9505989861        0.4282529447       -1.0539234260
 C         -4.0360590297       -0.4604296515       -0.6212133188
 C         -3.9458408968       -1.0692939449        0.5747080699
 C         -4.9971203319       -1.9610578832        1.1675399510
 C         -5.9850004817       -1.1605700083        2.0275852511
 C         -6.5353383525        0.0866760547        1.3359132046
 H         -7.2443285396        0.5534794314        2.0230976278
 H         -5.7205518487        0.7979769242        1.1825191054
 C         -7.2280003907       -0.1855403353       -0.0067094759
 H         -7.4853740243       -1.2425805705       -0.0834605896
 H         -8.1625595173        0.3784310014       -0.0392277471
 C         -6.4154083187        0.2283288817       -1.2351644606
 H         -6.0752621479        1.2604172634       -1.1187206033
 H         -7.0762489780        0.1982617408       -2.1055106581
 C         -5.1973024427       -0.6469332407       -1.5565245450
 H         -5.4975252646       -1.6962783350       -1.5931046341
 H         -4.8330364756       -0.3593186351       -2.5471298129
 H         -6.8101500638       -1.8180159429        2.3074121529
 H         -5.4743877750       -0.8484079672        2.9415755199
 H         -5.5273002313       -2.4706920539        0.3652492416
 H         -4.5034470457       -2.7057299452        1.7944279883
 O         -2.8892397763       -0.9006159640        1.4063885573
 C         -1.8288650980       -0.0624904093        1.0779498625
 O         -0.9436142663       -0.0226511362        1.9528954445
 H          0.5744114616       -0.5979495254        0.3728814714
 C          0.9692101915       -0.2684881482       -0.5768438385
 C          0.3883538898        0.8185744214       -1.2157967805
 C          0.9157815857        1.2312686864       -2.4337203433
 C          1.9954130512        0.5713063088       -2.9955805999
 C          2.5719276023       -0.5106540710       -2.3548699903
 C          2.0515970275       -0.9310893378       -1.1374486094
 N          2.6334680200       -2.0276689004       -0.4679032362
 S          4.2585485739       -1.8934109153       -0.0784393024
 O          5.0392122904       -1.9884234420       -1.2861018620
 O          4.5018846587       -2.9074440889        0.9214986548
 C          4.4219599320       -0.2659989228        0.6298814827
 C          4.7487710909        0.8016686093       -0.1822072556
 C          4.7964508645        2.0713028022        0.3709547711
 C          4.5204831992        2.2502904879        1.7175590964
 C          4.1986479213        1.1667677514        2.5205946980
 C          4.1407734130       -0.1040181196        1.9719648577
 H          3.8933072143       -0.9720500577        2.5621684702
 H          3.9836984255        1.3073346929        3.5676630366
 H          4.5539281305        3.2399904875        2.1441958718
 H          5.0448062658        2.9163009321       -0.2504301424
 H          4.9645672281        0.6200599195       -1.2219816713
 H          2.1128347350       -2.3025207957        0.3534449454
 H          3.4163042311       -1.0339543996       -2.7736129214
 H          2.3914052271        0.9009890235       -3.9439124841
 H          0.4657515699        2.0684443339       -2.9467235050
 C         -0.7682471545        1.5511837496       -0.5859236775
 H         -1.2323587386        2.1667290546       -1.3726115470
 C         -0.3236266676        2.4986327326        0.5213321203
 C          0.9785907207        2.3787455221        1.2478678120
 C          0.7712987393        3.4933169896        0.2699719666
 H          0.6515327727        4.4985099408        0.6439031775
 H          1.2917761369        3.4283509110       -0.6733635109
 H          1.6468918261        1.5776827948        0.9749473063
 H          0.9821367555        2.6011501866        2.3036081631
 H         -1.1680675026        2.8435289778        1.1103746420
 O         -3.0039613483        1.0002203607       -2.1755165086
