  62
        -98.94267233
 C          2.0626634706        1.4153434690        0.0982665605
 C          1.7264398802        0.2852503091       -0.6845707593
 C          2.8283934299       -0.6462221713       -0.9645969193
 C          4.0658456100       -0.3568955617       -0.5220860294
 C          5.2658699997       -1.2415088521       -0.6940899494
 C          5.4322228095       -2.1904517720        0.5014193106
 C          4.1509476893       -2.9288430916        0.8889120408
 H          4.3973189792       -3.5895970116        1.7228112808
 H          3.4204164196       -2.2049762513        1.2571900208
 C          3.5215856490       -3.7501492415       -0.2450562391
 H          3.2316973087       -4.7259798513        0.1499018310
 H          4.2586405589       -3.9246497218       -1.0296382792
 C          2.2661959791       -3.1264459211       -0.8582282591
 H          1.7785374788       -3.8827042410       -1.4791568590
 H          1.5701007993       -2.8508324308       -0.0617190191
 C          2.4980549095       -1.8914286913       -1.7381096492
 H          3.2703619493       -2.1051903516       -2.4796580892
 H          1.5646766695       -1.6769534910       -2.2673645592
 H          6.2134263593       -2.9138234423        0.2610911806
 H          5.7639154498       -1.6061896620        1.3628740006
 H          6.1516735799       -0.6086722423       -0.7702662496
 H          5.1603612095       -1.8132259021       -1.6139894294
 O          4.3577471904        0.7653223583        0.1846621404
 C          3.3643514207        1.6658159286        0.5319899404
 O          3.7563312911        2.6305718386        1.2184759003
 O          0.5669770001        0.0590111894       -1.1193634592
 C          0.9844564310        2.4163015794        0.4739469005
 C         -0.2011263492        1.6872972798        1.0554419907
 C          0.0114761206        0.7443324998        2.0585144607
 C         -1.0345521196        0.0069214102        2.5778396409
 C         -2.3220776496        0.1923719406        2.1037588709
 C         -2.5482190094        1.1476419106        1.1246286309
 C         -1.4989410392        1.8991120702        0.6160746307
 H         -1.7034270290        2.6219518102       -0.1587583593
 N         -3.8722752694        1.2926938609        0.6180583309
 S         -4.1068162898        0.3719789209       -0.7825821090
 O         -3.2750995297        0.8604709205       -1.8622063091
 O         -5.5300489698        0.4159047313       -1.0446667189
 C         -3.6213508602       -1.2628333892       -0.2864665889
 C         -2.3075864404       -1.6599363796       -0.4410443689
 C         -1.9478196608       -2.9303892597       -0.0182743088
 C         -2.8938233510       -3.7700318994        0.5491064113
 C         -4.2080849308       -3.3523576889        0.6969800114
 C         -4.5777838605       -2.0852462389        0.2768465113
 H         -5.5862980203       -1.7157505885        0.3656730213
 H         -4.9415283110       -4.0077503187        1.1384264615
 H         -2.6033909313       -4.7558070794        0.8769680914
 H         -0.9245982309       -3.2513246601       -0.1333294089
 H         -1.5863256602       -0.9834490099       -0.8744310590
 H         -4.0873982791        2.2531826610        0.3798456409
 H         -3.1472750098       -0.3888922891        2.4814862110
 H         -0.8461200598       -0.7259552598        3.3472687309
 H          1.0214439605        0.5852871895        2.4125702107
 H          1.4185834612        3.0621201693        1.2511596704
 C          0.6371139112        3.2709126394       -0.7281258995
 C          0.1488520916        4.6756927296       -0.5424332296
 C          1.5263102015        4.4247112991       -1.0766147097
 H          1.7219303415        4.6286366689       -2.1187301297
 H          2.3711095216        4.6090690889       -0.4290786497
 H         -0.6012434583        5.0548699398       -1.2208185896
 H          0.0574721118        5.0448821997        0.4680074204
 H          0.2262796809        2.6911658395       -1.5485407294
