  62
        -98.94504481
 C         -1.4038187450       -1.5655337868       -0.3417660651
 C         -2.6218756806       -1.4403989407        0.3767757542
 C         -3.5517368991       -0.4115894558       -0.0987046020
 C         -3.2362978956        0.3222177125       -1.1810652991
 C         -4.0871515676        1.3964867693       -1.8028893718
 C         -3.9431100197        2.7745744315       -1.1423604374
 C         -4.5728514869        2.9020842980        0.2450990156
 H         -4.5801952208        3.9645075516        0.4964036866
 H         -5.6110840866        2.5715627371        0.2022454960
 C         -3.8324185134        2.1370380482        1.3512146058
 H         -3.7185841944        2.7808996788        2.2259503025
 H         -2.8265731482        1.8805638862        1.0104930107
 C         -4.5358763937        0.8620089751        1.8168502117
 H         -3.9107044539        0.3833291788        2.5747499589
 H         -5.4909561513        1.1181183977        2.2807593601
 C         -4.7937179942       -0.1601101794        0.7014692245
 H         -5.0907216953       -1.1051576943        1.1624882530
 H         -5.6013496725        0.1824999409        0.0549928737
 H         -4.4199608368        3.5023524778       -1.8030204018
 H         -2.8820064551        3.0272605571       -1.0846230153
 H         -3.7702520359        1.4794130514       -2.8449389369
 H         -5.1335203187        1.0904232225       -1.7824806961
 O         -2.0771766754        0.1460215529       -1.8671711826
 C         -1.1228537272       -0.7762967193       -1.4554393653
 O         -0.1013184946       -0.7847014837       -2.1697330116
 H          2.1178518668       -1.5998652851       -0.5408812939
 C          1.8568060360       -1.4001946994        0.4856775896
 C          0.6385202515       -1.8180490708        1.0023989015
 C          0.3311162594       -1.5109837809        2.3263296706
 C          1.2246442004       -0.8177669801        3.1190270603
 C          2.4425906549       -0.4107448214        2.6037670988
 C          2.7560596744       -0.7008030906        1.2816266997
 N          3.9941626795       -0.2971773929        0.7442476111
 S          3.9921054285        0.6312670039       -0.6514281057
 O          3.6685851054       -0.1865377294       -1.7894586632
 O          5.2978784251        1.2571428433       -0.6680348176
 C          2.7370363471        1.8582296871       -0.3404051465
 C          3.0676040224        2.9432164466        0.4492331271
 C          2.0814193547        3.8570333334        0.7811916082
 C          0.7834102976        3.6659816809        0.3302762816
 C          0.4716197686        2.5733585768       -0.4624803259
 C          1.4544132052        1.6570681147       -0.8042654256
 H          1.2364771204        0.7986076211       -1.4204413642
 H         -0.5342725443        2.4150231778       -0.8209702609
 H          0.0119560792        4.3719434927        0.5952864549
 H          2.3231792263        4.7113709807        1.3926845643
 H          4.0895827103        3.0583445848        0.7728421159
 H          4.6078369033        0.1257285927        1.4272172532
 H          3.1485187749        0.1254655366        3.2197352925
 H          0.9733739312       -0.5925099574        4.1441897487
 H         -0.6253127053       -1.8224361170        2.7215767898
 C         -0.3865107681       -2.5673817878        0.1827015905
 H         -0.9524604557       -3.2066958182        0.8751223695
 C          0.2171261121       -3.4467925928       -0.8893705724
 C          0.9074190207       -4.7124609813       -0.4802170697
 C         -0.4138097053       -4.7733766166       -1.1845155166
 H         -0.4391431760       -5.1142321261       -2.2087333556
 H         -1.2851644584       -5.0529359425       -0.6101784892
 H          0.9314640948       -4.9492817371        0.5729209284
 H          1.7937850241       -5.0118039055       -1.0184423392
 H          0.6255505751       -2.8995169520       -1.7292234268
 O         -2.9167524362       -2.1572864482        1.3691545591
