  62
        -98.93820758
 C          2.6715161656        1.1933490768        0.2258177592
 C          3.0906417936        0.2582547383        1.2073699804
 C          4.3026061238       -0.5080680433        0.9031178879
 C          4.9584377433       -0.2824864765       -0.2494899086
 C          6.2265318945       -0.9585884900       -0.6953337784
 C          6.0048878020       -2.3177331201       -1.3729466506
 C          5.5951997703       -3.4533734440       -0.4343634207
 H          5.6882056670       -4.3838029925       -0.9980337258
 H          6.2972835250       -3.5060205230        0.3983652676
 C          4.1616887016       -3.3442246651        0.1040025229
 H          3.5935354678       -2.6413968540       -0.5098621114
 H          3.6662880565       -4.3140933060        0.0200841073
 C          4.0643455953       -2.9118722912        1.5671449545
 H          4.5124884120       -3.6761031710        2.2061226390
 H          3.0065563477       -2.8298875749        1.8300662919
 C          4.7335298689       -1.5657295110        1.8737124574
 H          4.4228079616       -1.2470715147        2.8717755804
 H          5.8180531915       -1.6731221433        1.8625765604
 H          5.2498701628       -2.1997116222       -2.1535550519
 H          6.9433958886       -2.5964512133       -1.8577066148
 H          6.6992634848       -0.2876083020       -1.4158113332
 H          6.8956365825       -1.0802846182        0.1570308605
 O          4.5363692701        0.6326514317       -1.1591131158
 C          3.3751167090        1.3746268025       -0.9660274173
 O          3.1110067144        2.1366873506       -1.9128358117
 H         -0.8179774346        1.3231826464        1.8950118529
 C         -0.8835022859        1.0377596410        0.8534827641
 C          0.1877564693        1.2927428875        0.0100566427
 C          0.0950780107        0.9029949604       -1.3224805952
 C         -1.0472315880        0.2795655203       -1.7908614109
 C         -2.1133553614        0.0257723388       -0.9451914751
 C         -2.0301493922        0.4063332136        0.3870589752
 N         -3.0994095410        0.1345003067        1.2545637797
 S         -4.6563392951        0.5310894342        0.7706976690
 O         -4.6547320828        1.6560148294       -0.1349455774
 O         -5.4004568365        0.6950878535        2.0000208851
 C         -5.2322770284       -0.9306679204       -0.0659963706
 C         -5.1615542317       -2.1361959880        0.6043089684
 C         -5.6188296443       -3.2809442135       -0.0285149013
 C         -6.1389499853       -3.2009732008       -1.3119228062
 C         -6.2056645247       -1.9825775359       -1.9701826332
 C         -5.7490567530       -0.8336318955       -1.3430606349
 H         -5.7762006764        0.1341036747       -1.8183817415
 H         -6.6102987651       -1.9224763600       -2.9677848118
 H         -6.4943049057       -4.0937155276       -1.8019453108
 H         -5.5682119175       -4.2303666846        0.4798671245
 H         -4.7529330871       -2.1564120796        1.6009045072
 H         -2.9328870244        0.4070198575        2.2123332538
 H         -3.0036993065       -0.4609992579       -1.3082271857
 H         -1.1080407392       -0.0143718985       -2.8278622721
 H          0.9249743782        1.1001273445       -1.9844935432
 C          1.4160030807        1.9854332076        0.5429567294
 H          1.3501393413        1.9654265964        1.6428575093
 C          1.5008969088        3.4476778499        0.1283852381
 C          0.7141509835        4.0467564264       -0.9941692755
 C          0.3605710773        4.3776029593        0.4228695877
 H          0.5794199560        5.3656932985        0.7983427689
 H         -0.5452127382        3.9442709712        0.8214822555
 H          1.2016884407        4.7950136878       -1.5999790019
 H          0.0437550338        3.4102018003       -1.5494102250
 H          2.4997402305        3.8469335690        0.2740616833
 O          2.4811654623        0.0836279951        2.2972304209
