  62
        -98.93314607
 C         -2.5894610274       -1.3339261926       -0.3357258529
 C         -2.1971287576       -0.0894466489       -0.8842962907
 C         -3.1810279949        0.9983525088       -0.7749128890
 C         -4.3717658302        0.7689490543       -0.1934521037
 C         -5.5071433335        1.7471371280       -0.0463201029
 C         -5.2457768250        2.9604287249        0.8670794361
 C         -4.7527829138        4.2120516483        0.1305361520
 H         -5.0808515633        4.1601568490       -0.9082824022
 H         -5.2342941213        5.0888149707        0.5682572343
 C         -3.2423863846        4.4632460341        0.1777438721
 H         -3.0047652871        5.2176466243       -0.5753697451
 H         -2.9793582221        4.8789818665        1.1531618644
 C         -2.3539209006        3.2398709759       -0.0502168468
 H         -1.3256827941        3.5828388450       -0.1843701949
 H         -2.3490825326        2.6155453572        0.8471351599
 C         -2.7646696277        2.3607244956       -1.2476258720
 H         -3.5654117002        2.8326998466       -1.8149461458
 H         -1.9100137079        2.2138928227       -1.9108518275
 H         -6.1936863649        3.2017688685        1.3506410418
 H         -4.5448606337        2.6798598209        1.6530893904
 H         -5.7991869709        2.0975577208       -1.0387708169
 H         -6.3378740898        1.1674856827        0.3611935099
 O         -4.7114583817       -0.4468201463        0.3160790137
 C         -3.8286446964       -1.5112904523        0.2832273820
 O         -4.2588405693       -2.5512309057        0.8213167583
 O         -1.0917059614        0.1129931300       -1.4523013199
 C         -1.6460780260       -2.5267720116       -0.3420032156
 C         -0.4780982998       -2.1911533332        0.5532551862
 C         -0.6543651019       -2.2441575508        1.9335360072
 C          0.3643789343       -1.8713422356        2.7894381091
 C          1.5778134046       -1.4310864684        2.2887438159
 C          1.7591276146       -1.3655901658        0.9145314329
 C          0.7386725406       -1.7556822482        0.0553034673
 H          0.8874074136       -1.6855165892       -1.0103196893
 N          2.9886373893       -0.9220134583        0.3885725246
 S          3.6731411646        0.4544374056        1.0905316348
 O          4.3350703360        0.0599315360        2.3098107050
 O          2.6854367595        1.5024555929        1.2223437558
 C          4.8875152211        0.8845748719       -0.1402156717
 C          6.1327094938        0.2877305349       -0.0875447404
 C          7.0654057046        0.5981732209       -1.0643283821
 C          6.7388809067        1.4939326791       -2.0716224824
 C          5.4849345061        2.0851870192       -2.1109038501
 C          4.5467874499        1.7781159022       -1.1378716983
 H          3.5622819239        2.2188788625       -1.1255769199
 H          5.2340449137        2.7825637087       -2.8939939805
 H          7.4663532742        1.7350705122       -2.8305187284
 H          8.0418573906        0.1422228060       -1.0370104335
 H          6.3429104446       -0.3952524904        0.7187332796
 H          2.9356380156       -0.8071718878       -0.6152369739
 H          2.3749513476       -1.1200896270        2.9445014056
 H          0.2135752555       -1.9171095233        3.8578562137
 H         -1.6099096737       -2.5670752571        2.3246086018
 H         -2.2022817570       -3.3534189538        0.1196157282
 C         -1.2558132658       -2.9267727174       -1.7489442713
 C         -0.6337805512       -4.2694691293       -1.9843326579
 C         -2.0343794229       -4.0009671803       -2.4443546451
 H         -2.2198242594       -3.8981406957       -3.5030271012
 H         -2.8491803147       -4.4576721291       -1.9016690845
 H          0.1434610930       -4.3560443541       -2.7280601381
 H         -0.4958873560       -4.9099119206       -1.1263400958
 H         -0.9170334832       -2.0942596761       -2.3527591640
