  62
        -98.94523524
 C         -2.6125398833       -1.1362967523        0.3159174378
 C         -2.6360323013       -0.3721347148       -0.8761186601
 C         -3.3595463210        0.9058852220       -0.8023309631
 C         -3.9363783292        1.2728472935        0.3564840160
 C         -4.6531957673        2.5713376863        0.5855974346
 C         -3.6948832105        3.6492024916        1.1114231312
 C         -2.4040968657        3.7780213558        0.3017038659
 H         -1.8195082280        4.5877591642        0.7444711358
 H         -1.8138489371        2.8645261390        0.4131890972
 C         -2.6174831881        4.0594964606       -1.1921715782
 H         -1.9255306817        4.8457779548       -1.5010935736
 H         -3.6290525953        4.4321318029       -1.3580862086
 C         -2.3622928187        2.8595052008       -2.1063839055
 H         -2.3264085766        3.2206976553       -3.1377388219
 H         -1.3829648376        2.4277195854       -1.8797973056
 C         -3.4119134064        1.7419677107       -2.0497056833
 H         -4.4082650003        2.1664797592       -2.1888566391
 H         -3.2092300880        1.0565201283       -2.8777779633
 H         -3.4285922474        3.4042826352        2.1422986563
 H         -4.2192228657        4.6063791304        1.1144101418
 H         -5.1077907351        2.8984678993       -0.3472510402
 H         -5.4386103348        2.4049893780        1.3247180511
 O         -3.8859757869        0.5148442335        1.4820661598
 C         -3.2115177001       -0.6958546080        1.4951274773
 O         -3.2122421417       -1.2734582959        2.6019254571
 H         -0.2940585950       -0.6654754859        1.4852252315
 C          0.2496798014       -1.2287472747        0.7351952456
 C         -0.4138255228       -2.2277619635        0.0326537711
 C          0.2930353478       -2.9441175946       -0.9231133682
 C          1.6223991856       -2.6503084721       -1.1757299638
 C          2.2753630486       -1.6497508122       -0.4801853617
 C          1.5795720422       -0.9319963641        0.4844045883
 N          2.2380298078        0.0786621961        1.2101434637
 S          3.0188299236        1.2809042989        0.3314421938
 O          3.0610957843        2.4255183560        1.2159662515
 O          2.3989913717        1.4865311953       -0.9569782668
 C          4.6687186486        0.6438815963        0.1279280032
 C          5.2092687473        0.5189390589       -1.1367382602
 C          6.4967635023        0.0217237895       -1.2684364491
 C          7.2162837849       -0.3389628403       -0.1394973363
 C          6.6596733957       -0.2042598617        1.1238704796
 C          5.3739649434        0.2934075170        1.2626462735
 H          4.9055654748        0.4170466097        2.2247549040
 H          7.2222095530       -0.4858445799        1.9993746073
 H          8.2168321449       -0.7276119277       -0.2448381564
 H          6.9310813176       -0.0832532518       -2.2496454114
 H          4.6088336029        0.8054892225       -1.9855319865
 H          1.6624368821        0.4939047165        1.9290078515
 H          3.3083031381       -1.4153111524       -0.6790337240
 H          2.1576306746       -3.2090120115       -1.9282104098
 H         -0.1994129588       -3.7237225161       -1.4802472762
 C         -1.8711922618       -2.4616323487        0.3510685541
 H         -1.9390693723       -2.8200621752        1.3887386184
 C         -2.5419757876       -3.4692528987       -0.5578869977
 C         -2.4288601862       -4.9349734584       -0.2681533491
 C         -3.7295272157       -4.2251424507       -0.0453388511
 H         -4.5481564690       -4.4191402606       -0.7219058556
 H         -4.0410042309       -4.0288134447        0.9705645302
 H         -1.8586151512       -5.2301166523        0.5995542404
 H         -2.3574172653       -5.6210048800       -1.0985138986
 H         -2.5618742508       -3.1484072258       -1.5928263961
 O         -2.0847611321       -0.7360627388       -1.9469621161
