  62
        -98.94146614
 C          1.6357412700        1.1812003908        0.1688828201
 C          1.6676919597       -0.1704612392        0.5977636500
 C          2.7524938597       -1.0032387293        0.0649588902
 C          3.6323175299       -0.4576027794       -0.7944430697
 C          4.8155110099       -1.1705691196       -1.3808275396
 C          6.0648639498       -0.9852663198       -0.5085606994
 C          5.8308009595       -1.2760646898        0.9738492906
 H          6.7863877695       -1.1456161400        1.4863554507
 H          5.1445689696       -0.5292715197        1.3800045805
 C          5.2811397393       -2.6793142398        1.2658943804
 H          5.4486574093       -3.3295052798        0.4065282105
 H          5.8343874291       -3.1041766999        2.1061101305
 C          3.7997695992       -2.7131712695        1.6462806302
 H          3.5729579490       -3.7069403595        2.0417850002
 H          3.6104758292       -1.9931698095        2.4466511402
 C          2.8095021394       -2.4386292193        0.5073787501
 H          3.0318640994       -3.0939979694       -0.3375237199
 H          1.8087163593       -2.6784114392        0.8793760200
 H          6.8520095497       -1.6385623799       -0.8893197093
 H          6.4049975499        0.0483759901       -0.6050773893
 H          4.5829196097       -2.2290761396       -1.4795112596
 H          5.0104542701       -0.7557368296       -2.3711243595
 O          3.5639525001        0.8349492106       -1.1956550397
 C          2.5675207102        1.6904481007       -0.7370008698
 O          2.6404646005        2.8379750607       -1.2105816297
 O          0.8218922596       -0.6570147991        1.3964858599
 C          0.5046114701        2.0331109710        0.7181896099
 C         -0.7002520198        1.9036973612       -0.1782776102
 C         -0.6232273196        2.2075347313       -1.5350603702
 C         -1.7316843195        2.0606521615       -2.3476522404
 C         -2.9262844996        1.5866244116       -1.8321259405
 C         -3.0097727799        1.2691334416       -0.4822839706
 C         -1.9016918500        1.4425732914        0.3373310596
 H         -1.9820157902        1.1885053414        1.3833615996
 N         -4.2070740400        0.7816024118        0.0706695393
 S         -4.1685696504       -0.6176461283        0.9939787992
 O         -5.5565823205       -1.0090457280        1.1089623790
 O         -3.4747062105       -0.3707153684        2.2303113693
 C         -3.2962679304       -1.7934028484       -0.0246066107
 C         -1.9202315305       -1.8830911786        0.0327622295
 C         -1.2747517505       -2.7489889287       -0.8372575205
 C         -2.0052426705       -3.5066596485       -1.7384965906
 C         -3.3882382504       -3.4087542683       -1.7781338608
 C         -4.0400540104       -2.5401338882       -0.9191623008
 H         -5.1132023904       -2.4366955881       -0.9112776510
 H         -3.9563958004       -4.0023871182       -2.4760579909
 H         -1.4932626105       -4.1775001686       -2.4103182405
 H         -0.1984885905       -2.8161658788       -0.7999090203
 H         -1.3596809905       -1.2954920187        0.7433025296
 H         -4.9722527000        0.7372394619       -0.5878220109
 H         -3.7878595596        1.4627233218       -2.4704385407
 H         -1.6629317893        2.3070410215       -3.3964261603
 H          0.3140910305        2.5599939811       -1.9392024501
 H          0.2432182499        1.5671355310        1.6822505499
 C          0.8997054003        3.4738185809        1.0070171600
 C          0.3207324405        4.6549860411        0.2931130600
 C         -0.0703146997        4.3764760411        1.7112719099
 H          0.2961107303        5.0261193810        2.4916725800
 H         -1.0632836698        3.9896573312        1.8889733398
 H          0.9803035607        5.4843436510        0.0882193001
 H         -0.4120569794        4.4817203412       -0.4787331701
 H          1.9407367802        3.5589969008        1.3007214802
