  62
        -98.94749191
 C         -0.7423095906       -1.2841529399        0.0802491717
 C         -1.4342852506       -0.5305179892        1.0569110112
 C         -2.3850479106        0.4639780905        0.5429471305
 C         -2.4878533506        0.6494976095       -0.7856454196
 C         -3.4795439007        1.5595034491       -1.4491433103
 C         -4.7760620507        0.8068342788       -1.7827408497
 C         -5.3433755006        0.0027854496       -0.6126127191
 H         -6.2727491706       -0.4577072806       -0.9548908788
 H         -4.6541239106       -0.8092308202       -0.3695975486
 C         -5.6184265306        0.8280396805        0.6523624603
 H         -5.6627645406        1.8882431204        0.4011301096
 H         -6.5973137106        0.5476811108        1.0470726905
 C         -4.6070684106        0.6165049913        1.7808755604
 H         -4.4936698306       -0.4530490085        1.9756485412
 H         -5.0104568906        1.0724357920        2.6890993501
 C         -3.2139813606        1.2152294312        1.5459710400
 H         -3.3120632306        2.2637991310        1.2605221292
 H         -2.6643834606        1.1617921218        2.4903237500
 H         -4.5747096007        0.1164245482       -2.6049614092
 H         -5.5188158907        1.5313371686       -2.1215546402
 H         -3.0404533407        1.9325476484       -2.3751940405
 H         -3.6978782107        2.3971179295       -0.7906081708
 O         -1.7349929507       -0.0276222311       -1.6890617792
 C         -0.8702428407       -1.0333067208       -1.2860321385
 O         -0.2841741607       -1.6126953515       -2.2194131581
 O         -1.2758553906       -0.6923405483        2.2979760913
 C          0.1822689494       -2.4015770695        0.5256488924
 C          1.5658882494       -2.2115340299       -0.0428371477
 C          2.3173862294       -3.2453703003       -0.5863302970
 C          3.5810238394       -2.9985304807       -1.0940885672
 C          4.1220099494       -1.7269711206       -1.0645904982
 C          3.3806967294       -0.6862211303       -0.5152109989
 C          2.1181960494       -0.9376499199       -0.0049638387
 H          1.5469705194       -0.1297521796        0.4295400908
 N          3.8803628894        0.6218827097       -0.5049472198
 S          3.4122182094        1.7235851006        0.6517094894
 O          4.3722796994        2.8005698005        0.5260166587
 O          3.3185628894        1.1222422015        1.9621492799
 C          1.8205014794        2.3199659402        0.1237691091
 C          1.5649138593        2.4752923492       -1.2237953110
 C          0.3498493093        3.0136511090       -1.6152445614
 C         -0.5775107307        3.3976762396       -0.6594501216
 C         -0.3077302006        3.2307578906        0.6894520985
 C          0.9011975594        2.6844050709        1.0871748588
 H          1.1447145794        2.5242455216        2.1257436089
 H         -1.0304044806        3.5222082911        1.4342651583
 H         -1.5150686707        3.8313026394       -0.9680847619
 H          0.1317045893        3.1333569182       -2.6643383415
 H          2.3071996693        2.1689589887       -1.9421512708
 H          4.8372368694        0.7357830095       -0.8027747599
 H          5.1046223993       -1.5348359309       -1.4674418583
 H          4.1531457693       -3.8090156810       -1.5195506467
 H          1.9125737394       -4.2434493403       -0.6197160163
 H          0.2484952894       -2.3119747088        1.6209407324
 C         -0.4313288806       -3.7443323498        0.1824422634
 C         -0.1676164306       -4.9438371192        1.0414523542
 C         -1.5153448406       -4.2894633692        1.0615119638
 H         -2.3466271406       -4.8012845895        0.6001728842
 H         -1.7888444606       -3.7052644886        1.9282202034
 H         -0.0758853506       -5.9090480595        0.5665332149
 H          0.4713842894       -4.8119585786        1.9015797341
 H         -0.5336146706       -3.8907391105       -0.8873734465
