  62
        -98.95136189
 C          1.8186845596        1.2587219115       -0.2891110200
 C          2.9149451498        0.5814355615        0.2922293598
 C          3.2326811596       -0.7292385185       -0.2828543501
 C          2.5041598194       -1.2020320386       -1.3107598999
 C          2.6897199993       -2.5322193687       -1.9878827898
 C          1.9819714895       -3.6830186386       -1.2588237695
 C          2.6633789397       -4.1485954085        0.0287030104
 H          2.2099684398       -5.1032234085        0.3032975506
 H          3.7219358697       -4.3310527985       -0.1624366798
 C          2.5073372800       -3.1774300184        1.2072750203
 H          1.6761092100       -2.4963697684        1.0059135304
 H          2.2395978302       -3.7383555883        2.1065160604
 C          3.7629705301       -2.3688833083        1.5369506599
 H          3.5213667302       -1.6836197882        2.3537511899
 H          4.5498364502       -3.0427722483        1.8845978798
 C          4.3124368698       -1.5389768984        0.3694803097
 H          5.0565800199       -0.8432834784        0.7659109795
 H          4.7943981496       -2.1895212385       -0.3598805103
 H          1.9319349193       -4.5294785587       -1.9481293594
 H          0.9589223995       -3.3728419686       -1.0292640893
 H          2.2576578391       -2.4378782388       -2.9864175997
 H          3.7523286493       -2.7563106387       -2.0863253400
 O          1.4910567593       -0.4971577187       -1.8760434298
 C          1.0902719494        0.7175603613       -1.3477034498
 O          0.0978373293        1.2214023913       -1.9107317796
 H          0.2277190600        0.4165616516        1.4538233904
 C         -0.4906736500        1.2127185116        1.3230306805
 C         -0.0939938102        2.4194077816        0.7607260103
 C         -1.0420717902        3.4262086015        0.6260422204
 C         -2.3541439101        3.2133015116        1.0140134607
 C         -2.7556524500        1.9882080316        1.5147362809
 C         -1.8116762799        0.9793347216        1.6637715808
 N         -2.1611898398       -0.3085061983        2.1268780110
 S         -2.0259047901       -1.5407454384        0.9926043111
 O         -2.5002420299       -2.7296799884        1.6689640714
 O         -0.6836321102       -1.5942927885        0.4778377608
 C         -3.1953542903       -1.0760167486       -0.2715831786
 C         -2.8365326506       -0.1448229587       -1.2251981188
 C         -3.7941754008        0.2721536112       -2.1382376687
 C         -5.0805518708       -0.2406531988       -2.0819511583
 C         -5.4229856205       -1.1769352887       -1.1174487181
 C         -4.4745742703       -1.5948197486       -0.1989123283
 H         -4.6919514801       -2.3217097685        0.5672369318
 H         -6.4229257505       -1.5778019787       -1.0767701279
 H         -5.8190451609        0.0909572111       -2.7947024382
 H         -3.5193363410        0.9995864211       -2.8851599988
 H         -1.8280479206        0.2388749513       -1.2591184991
 H         -3.0825180497       -0.3526245383        2.5419876113
 H         -3.7859130899        1.8100632616        1.7841479012
 H         -3.0786672801        4.0052416315        0.9018896708
 H         -0.7545999003        4.3770324415        0.2076773002
 C          1.3428130598        2.5645280615        0.3200898300
 H          1.9694225999        2.7205295516        1.2114251398
 C          1.5608110395        3.7171662314       -0.6383991402
 C          1.8607423996        5.0913513215       -0.1202040204
 C          2.9391952995        4.2874528114       -0.7799707806
 H          3.2778628593        4.5805040513       -1.7623185507
 H          3.7150275396        3.8618918215       -0.1602706307
 H          1.4612125195        5.9416008414       -0.6521594904
 H          1.9128455599        5.2227138916        0.9500405195
 H          0.9620332293        3.6256120113       -1.5376996501
 O          3.5871155100        1.0462427216        1.2538494996
