  62
        -98.94075275
 C          2.0204117861        1.3413312410        0.3693030129
 C          2.4950822948        0.6341066587       -0.7633341847
 C          3.6950454215       -0.1909350517       -0.5460958519
 C          4.2556869364       -0.2416252965        0.6750036222
 C          5.4436922159       -1.0817028286        1.0423861389
 C          5.0090962525       -2.4605778854        1.5585930396
 C          3.9905728593       -3.1635380650        0.6607360244
 H          3.7808392860       -4.1380992740        1.1072433487
 H          3.0548062898       -2.5993125832        0.6701228033
 C          4.4494567251       -3.3549899652       -0.7916439173
 H          4.2057804422       -4.3727227741       -1.1037780110
 H          5.5329781871       -3.2477407997       -0.8546538927
 C          3.7874304133       -2.4107136668       -1.7971671162
 H          4.0130926930       -2.7742649315       -2.8032388181
 H          2.7014366040       -2.4456752557       -1.6747745492
 C          4.2331286806       -0.9444418946       -1.7296394761
 H          5.3231813280       -0.8889315545       -1.7608524813
 H          3.8363330931       -0.4378318543       -2.6143222283
 H          4.5638822512       -2.3356944583        2.5484895009
 H          5.8971940110       -3.0864416569        1.6625403511
 H          6.0862866167       -1.1939688039        0.1714379232
 H          5.9989756490       -0.5679579523        1.8290477030
 O          3.7602168415        0.4346438414        1.7429412348
 C          2.6233575268        1.2178783919        1.6233550727
 O          2.2475152532        1.7390733056        2.6927234004
 H         -0.2128636244       -0.1582847418        0.9402398331
 C         -0.7078587657        0.2339486302        0.0593837406
 C         -0.3181496153        1.4730823682       -0.4365219754
 C         -0.9633097026        1.9674012283       -1.5614383935
 C         -1.9514277131        1.2247278274       -2.1852435756
 C         -2.3207488409       -0.0163718938       -1.7022615210
 C         -1.6893922382       -0.5153964298       -0.5693261062
 N         -2.0629276435       -1.7721246211       -0.0637398119
 S         -3.6943972977       -2.1295132452        0.0317119986
 O         -3.8095212351       -3.0817949563        1.1143363702
 O         -4.1708761956       -2.5786998516       -1.2526361807
 C         -4.4874095813       -0.5906879505        0.4644529500
 C         -4.1163161419        0.0221755353        1.6449451987
 C         -4.6966481959        1.2337891043        1.9825294950
 C         -5.6341591399        1.8089398204        1.1380118121
 C         -6.0007950157        1.1781427090       -0.0404400952
 C         -5.4214672185       -0.0328871263       -0.3842898306
 H         -5.6743477770       -0.5557463201       -1.2922031801
 H         -6.7315330025        1.6267695485       -0.6938000462
 H         -6.0811988197        2.7541321513        1.4025720363
 H         -4.4125708957        1.7252047128        2.8993147326
 H         -3.3884380884       -0.4531909735        2.2831820563
 H         -1.5758249736       -2.0411556001        0.7777512774
 H         -3.0718107287       -0.6150869197       -2.1915415317
 H         -2.4351216676        1.6151262967       -3.0674952013
 H         -0.6735078519        2.9213432149       -1.9692939359
 C          0.7743897033        2.2085140553        0.3011904260
 H          0.4517700912        2.3194707626        1.3499263475
 C          1.0187170749        3.6158160081       -0.2227395190
 C          2.3559337878        4.2753827074       -0.0688012253
 C          1.8630978393        3.8894557783       -1.4294638277
 H          1.5544562328        4.6762043723       -2.1023848525
 H          2.3166936937        3.0454683186       -1.9238069746
 H          2.3836815325        5.3223725596        0.1935924649
 H          3.1537985165        3.6949278223        0.3718131457
 H          0.1530273571        4.2549558638       -0.0792276685
 O          1.9568814253        0.6778835558       -1.8985883299
