  62
        -98.93973728
 C         -2.2686050797       -0.9230616861        0.6443846563
 C         -3.3963954222       -0.8375313104       -0.2086521833
 C         -4.3426754338        0.2509501643        0.0832439764
 C         -4.0981265223        1.0897222653        1.1051625542
 C         -4.9479429313        2.2715935903        1.4705321552
 C         -4.4750196297        3.5427202462        0.7515099128
 C         -4.2665747859        3.3617181384       -0.7521603916
 H         -3.9644547025        4.3302707162       -1.1566176156
 H         -3.4339770300        2.6730372789       -0.9153762891
 C         -5.5019624478        2.8537590124       -1.5087120117
 H         -6.3964128696        3.0117872021       -0.9051471294
 H         -5.6185660749        3.4411313807       -2.4218492423
 C         -5.4273794443        1.3850432068       -1.9296555456
 H         -4.4853142568        1.2011819023       -2.4522307269
 H         -6.2380609914        1.1927547373       -2.6373522530
 C         -5.5570229193        0.3599423368       -0.7962507034
 H         -6.4444930479        0.5802933839       -0.1999503539
 H         -5.6844674364       -0.6255415243       -1.2531780377
 H         -5.2090194159        4.3313603311        0.9270408147
 H         -3.5259055933        3.8568031776        1.1925233528
 H         -5.9838460575        2.0600455391        1.2125525822
 H         -4.8750845077        2.4261482811        2.5483784249
 O         -3.0074626608        0.9761487989        1.9067073463
 C         -2.0746052265       -0.0241189399        1.6980455489
 O         -1.1324218105       -0.0181307638        2.5176428639
 H          1.3721433194       -1.1865901863        0.7396767612
 C          1.0657943661       -1.2318929423       -0.2951767730
 C         -0.2293679388       -1.6134213012       -0.6168525452
 C         -0.6076732714       -1.6415969835       -1.9553680876
 C          0.2944333638       -1.2908681283       -2.9427342301
 C          1.5835824373       -0.9070527787       -2.6187042826
 C          1.9729001023       -0.8787922996       -1.2844877369
 N          3.2913550170       -0.5353024504       -0.9356312979
 S          3.5612626433        0.3484639111        0.4782365754
 O          3.4944608324       -0.5465955579        1.6055033129
 O          2.6962089113        1.5070704749        0.5124414929
 C          5.2543925531        0.8427603402        0.2124824413
 C          5.5335991850        2.1204398807       -0.2336022574
 C          6.8535159343        2.4770482085       -0.4628672893
 C          7.8655614209        1.5540703897       -0.2467770508
 C          7.5698172971        0.2752173661        0.2018689155
 C          6.2528381268       -0.0870323883        0.4349224430
 H          5.9751995568       -1.0646262937        0.7927950872
 H          8.3593913203       -0.4388694181        0.3715221191
 H          8.8915314857        1.8340719426       -0.4262825291
 H          7.0864590642        3.4714117763       -0.8082025670
 H          4.7145261677        2.8061531161       -0.3804968704
 H          3.8020146102       -0.1349907658       -1.7117402179
 H          2.2854328987       -0.6330649394       -3.3919362310
 H         -0.0115696822       -1.3115062633       -3.9778993438
 H         -1.6190391266       -1.9174201266       -2.2097124776
 C         -1.1895616563       -1.9842284452        0.4887541380
 H         -0.6249848391       -1.9678372024        1.4315149041
 C         -1.7471898542       -3.3807685582        0.2916702424
 C         -0.8649589457       -4.5553768491        0.5838765698
 C         -2.0143126157       -4.2361977082        1.4913447659
 H         -2.8781965304       -4.8836188037        1.4799806327
 H         -1.7963036372       -3.8158952804        2.4629172799
 H          0.1338536175       -4.3512346235        0.9406493379
 H         -0.9374393110       -5.4249291419       -0.0509231602
 H         -2.4371967313       -3.4592129588       -0.5373384832
 O         -3.6287358585       -1.6200889872       -1.1671025858
