  62
        -98.93311122
 C         -2.4393821011       -1.0224833029        0.2389818635
 C         -3.1096006491       -0.0622655294        1.0335915206
 C         -3.5059089949        1.2008937214        0.3813228677
 C         -3.1756929216        1.3896311339       -0.9095907934
 C         -3.4184380192        2.6032137705       -1.7667026017
 C         -2.4465967859        3.7503859192       -1.4475371167
 C         -2.2411665073        4.0226487843        0.0403729668
 H         -1.8595617255        3.1180373200        0.5182961582
 H         -1.4631889954        4.7853499597        0.1317476030
 C         -3.4753615017        4.5181586692        0.7909834370
 H         -3.8300050258        5.4399016501        0.3247786481
 H         -3.1583434678        4.7610600076        1.8083655879
 C         -4.6460128283        3.5364333467        0.8810103642
 H         -5.2071365339        3.5074264487       -0.0491010300
 H         -5.3303795191        3.9168665457        1.6447897586
 C         -4.2621307162        2.1231444604        1.3075225499
 H         -3.6725612983        2.1737662532        2.2300247754
 H         -5.1758433808        1.5813426979        1.5804739260
 H         -2.8068703645        4.6550927472       -1.9403550275
 H         -1.4725332652        3.4963183880       -1.8744586231
 H         -4.4495832422        2.9302336660       -1.6717116708
 H         -3.2597056744        2.2925037384       -2.8017806238
 O         -2.4918608237        0.4535033779       -1.6274914544
 C         -2.0956899499       -0.7579099269       -1.0876262348
 O         -1.4648013185       -1.4828600377       -1.8798264986
 O         -3.3587076057       -0.2419338785        2.2569137116
 C         -1.9967869672       -2.3116976886        0.9092459942
 C         -0.5443042931       -2.5645209509        0.5910877834
 C         -0.0648763902       -3.7240589237       -0.0018998865
 C          1.2796541680       -3.8514726232       -0.3076994566
 C          2.1717592866       -2.8318435558       -0.0328929503
 C          1.7024221653       -1.6699991095        0.5637733282
 C          0.3608972956       -1.5509967936        0.8828664001
 H         -0.0019709988       -0.6358129172        1.3379162716
 N          2.6069965699       -0.6110423293        0.8289200676
 S          3.0990463217        0.2733530927       -0.5286191629
 O          2.2322633117        1.4239440036       -0.6912170757
 O          3.2234076816       -0.6135437587       -1.6557270236
 C          4.7170834827        0.8121060034       -0.0084248479
 C          5.7205514542       -0.1344915820        0.0649286987
 C          6.9798499893        0.2546308233        0.4911771342
 C          7.2134235087        1.5777515393        0.8364417239
 C          6.1962624997        2.5163004453        0.7579756622
 C          4.9334748690        2.1321288671        0.3334319823
 H          4.1138011285        2.8278543480        0.2528006241
 H          6.3803786524        3.5443444580        1.0256280172
 H          8.1945981795        1.8792023185        1.1677040070
 H          7.7732984325       -0.4725737684        0.5532179844
 H          5.4947870580       -1.1486898643       -0.2196146856
 H          2.2097885588        0.0546394318        1.4801229166
 H          3.2133343875       -2.9113207522       -0.2962470917
 H          1.6344107676       -4.7553474840       -0.7793528444
 H         -0.7482858778       -4.5178797726       -0.2551120161
 H         -2.0758505136       -2.0963504828        1.9886537519
 C         -2.8985023898       -3.5064990426        0.6420496959
 C         -4.3443403306       -3.3189988135        0.2946977384
 C         -3.3903551292       -3.8496260442       -0.7309507290
 H         -3.4612350781       -4.8926065653       -1.0032728420
 H         -3.0918998509       -3.2056819684       -1.5431289048
 H         -5.0673863997       -3.9947272386        0.7261839731
 H         -4.7045461750       -2.3066214394        0.1815369147
 H         -2.6690160336       -4.3401433436        1.2985786881
