  62
        -98.93821679
 C          2.3866057197        0.3038807309        0.5807543904
 C          1.4149896597       -0.4614667897        1.2731333698
 C          1.3483684806       -1.9084899597        1.0103920397
 C          2.2228992413       -2.4377318992        0.1358287902
 C          2.3851835822       -3.8740002891       -0.2915301698
 C          1.3028894929       -4.3415810196       -1.2729278004
 C         -0.1231715975       -3.9844586504       -0.8646912911
 H         -0.2215522080       -2.8982545804       -0.8202155111
 H         -0.7897359469       -4.3270994407       -1.6616833014
 C         -0.5998854678       -4.6096352907        0.4450909787
 H         -1.6684152379       -4.3947951112        0.5292921881
 H         -0.4823760472       -5.6942665306        0.3865402087
 C          0.0818101613       -4.1083204504        1.7222370990
 H          1.0399635715       -4.5964159799        1.8817237295
 H         -0.5563655689       -4.3938140507        2.5633701687
 C          0.2522049405       -2.5945978703        1.7880717492
 H         -0.6861774396       -2.1167220407        1.4823086687
 H          0.4051349499       -2.2983676703        2.8324277993
 H          1.4965659232       -3.8765042495       -2.2429628403
 H          1.3925486635       -5.4236540396       -1.3919604804
 H          3.3561587625       -3.9397967286       -0.7885379893
 H          2.4145315721       -4.5222533991        0.5797867902
 O          3.1385817912       -1.6677572087       -0.5146225994
 C          3.2335776504       -0.2922198987       -0.3512015792
 O          4.1097194305        0.2252864318       -1.0696076988
 H          0.7670304401        1.1369287501       -1.1874782104
 C          0.3258881994        1.8980622699       -0.5602711606
 C          1.0088810386        2.3572780302        0.5558847298
 C          0.4091731977        3.3285269998        1.3497426895
 C         -0.8440961424        3.8222180992        1.0342785489
 C         -1.5414548716        3.3257777089       -0.0528687614
 C         -0.9553362807        2.3452209692       -0.8433908312
 N         -1.6481569298        1.7455519289       -1.9180995716
 S         -2.0259440791        0.1235242987       -1.6949761318
 O         -0.8225647188       -0.6319084007       -1.4709133613
 O         -2.8124225584       -0.2449340916       -2.8527863122
 C         -3.0683232498        0.1165016581       -0.2463869624
 C         -2.4963020005        0.2205144884        1.0059864779
 C         -3.3287899611        0.2907290179        2.1133864975
 C         -4.7050793810        0.2610166972        1.9530265068
 C         -5.2630515303        0.1575967070        0.6873126866
 C         -4.4389005997        0.0897870774       -0.4238391630
 H         -4.8257073092        0.0058666073       -1.4267459232
 H         -6.3337298502        0.1325184464        0.5634603260
 H         -5.3450199615        0.3181253368        2.8194242665
 H         -2.8848944616        0.3707084881        3.0927361378
 H         -1.4226159406        0.2401112789        1.1162710485
 H         -2.4874055200        2.2422592585       -2.1866383520
 H         -2.5351328916        3.6811641084       -0.2811420019
 H         -1.2953597330        4.5799103189        1.6562324187
 H          0.9229502471        3.6805722900        2.2322002898
 C          2.3693631787        1.7952732508        0.8894334704
 H          2.4917015182        1.8838194908        1.9831091405
 C          3.4895664787        2.5942450214        0.2450634310
 C          3.3248391090        3.2923372914       -1.0681183990
 C          3.4434232779        4.0925497814        0.1927452611
 H          4.3587712876        4.6355147519        0.3724670815
 H          2.5547570475        4.5878687809        0.5522445706
 H          4.1546837993        3.2653964219       -1.7573195886
 H          2.3598643892        3.2396465209       -1.5499726795
 H          4.4598044588        2.1470327819        0.4263524315
 O          0.6212646390        0.0602096899        2.1045295395
