  62
        -98.93574642
 C         -2.2783740088       -1.2943427437        0.2601141502
 C         -2.5436993025       -0.3695404920       -0.7753329841
 C         -3.4825568738        0.7247974141       -0.4567239325
 C         -4.0269957219        0.7829171650        0.7719366850
 C         -4.9998406904        1.7921706678        1.3278344687
 C         -6.1721143276        2.1902864320        0.4177002359
 C         -6.0707531299        3.6214579389       -0.1125164889
 H         -7.0736713904        3.9717083058       -0.3664777546
 H         -5.6953135387        4.2626428947        0.6877941659
 C         -5.1939873325        3.7937777827       -1.3516914529
 H         -5.7019148837        3.3609052169       -2.2161499301
 H         -5.0924843367        4.8655410124       -1.5377491096
 C         -3.7961969055        3.1784823200       -1.2565411035
 H         -3.1565155171        3.6917564826       -1.9776083643
 H         -3.3672589137        3.3543589044       -0.2706104374
 C         -3.7595024194        1.6787808718       -1.5865834091
 H         -4.6915382189        1.3823730444       -2.0764356708
 H         -2.9634769682        1.4815998811       -2.3115636070
 H         -7.0892980620        2.1124344186        1.0037068321
 H         -6.2562657462        1.4850633639       -0.4076455523
 H         -5.3800435482        1.3414891190        2.2474878227
 H         -4.4428836129        2.6838231280        1.6265948865
 O         -3.7197756124       -0.1205654555        1.7485928007
 C         -2.8447167583       -1.1674860680        1.5262084351
 O         -2.6512720095       -1.9002385623        2.5187851522
 H          0.0058543844       -0.4396229960        1.1288597781
 C          0.5813296273       -0.8873577585        0.3265040271
 C          0.0348841057       -1.9497853249       -0.3831497922
 C          0.7919108875       -2.5254693018       -1.3949491036
 C          2.0504356631       -2.0334626061       -1.6959299154
 C          2.5815106883       -0.9644795171       -0.9986876972
 C          1.8385290793       -0.3886414237        0.0237514339
 N          2.3694819204        0.7038509527        0.7358799108
 S          3.8709829744        0.4942514354        1.4627629098
 O          4.0965928238       -0.8882505140        1.8172812833
 O          3.9030961147        1.4500117294        2.5486354399
 C          5.0291456462        1.0004412810        0.2092417161
 C          4.9065989343        2.2727439694       -0.3140996950
 C          5.8048642378        2.6854643292       -1.2851514460
 C          6.8059848380        1.8251645064       -1.7114539718
 C          6.9174277537        0.5521702856       -1.1735042402
 C          6.0213691211        0.1324382326       -0.2025146137
 H          6.0645519669       -0.8497417040        0.2403493825
 H          7.6963123918       -0.1148741904       -1.5063229430
 H          7.5034503413        2.1493482574       -2.4675992792
 H          5.7212036328        3.6744803424       -1.7061242148
 H          4.1166451305        2.9100459485        0.0470552329
 H          1.7190132789        1.1048825640        1.3963216656
 H          3.5575374860       -0.5736983976       -1.2356612255
 H          2.6243437171       -2.4875399690       -2.4891451763
 H          0.3953576963       -3.3589967662       -1.9508449622
 C         -1.3313760658       -2.4542235638        0.0164391109
 H         -1.2280031666       -2.9689419469        0.9838735764
 C         -1.9362577352       -3.4174417184       -0.9844042571
 C         -1.6309810746       -4.8822374608       -0.9058797587
 C         -2.9864800550       -4.3773005793       -0.5150508477
 H         -3.8238026166       -4.5847027257       -1.1642224521
 H         -3.2435544917       -4.3547672620        0.5344158329
 H         -1.5407150433       -5.4408432605       -1.8252739243
 H         -0.9694502372       -5.2142614779       -0.1198585244
 H         -2.0678315959       -2.9701985327       -1.9628251423
 O         -2.0196743920       -0.4465254520       -1.9168110014
