  62
        -98.94225579
 C          0.9096737295        1.4289148451        0.0125088403
 C          1.5113705117        0.5179962555        0.9088746427
 C          2.4617927589       -0.4478919723        0.3319395250
 C          2.7145461521       -0.4157139750       -0.9899347992
 C          3.5654741686       -1.3176124949       -1.8595517892
 C          4.6035458769       -2.2511575136       -1.2415969560
 C          5.7776764095       -1.5463255593       -0.5634565667
 H          6.4020095897       -2.3066484987       -0.0890606253
 H          6.3783879970       -1.0540452560       -1.3322777625
 C          5.4009458526       -0.4925835163        0.4748551948
 H          4.8727156271        0.3292344709       -0.0129916366
 H          6.3274896328       -0.0817813604        0.8848468412
 C          4.5592036555       -0.9995345590        1.6442697087
 H          4.5117096959       -0.1971989986        2.3850976645
 H          5.0530209674       -1.8552520740        2.1084842645
 C          3.1119166487       -1.3946925628        1.2997709153
 H          3.0547793079       -2.4173632074        0.9322217182
 H          2.5223267438       -1.3431108862        2.2198100816
 H          5.0064320869       -2.8516064428       -2.0619756752
 H          4.1252662443       -2.9425423391       -0.5538370578
 H          4.0600297316       -0.6571579750       -2.5791830215
 H          2.8529311298       -1.9214293621       -2.4343172630
 O          2.1305652776        0.5029976251       -1.8131901339
 C          1.2063505755        1.4252987439       -1.3494023223
 O          0.7413810142        2.1734972339       -2.2305332855
 O          1.2510245794        0.4955788848        2.1423880507
 C         -0.1473340758        2.3799482427        0.5347447411
 C         -1.4940902187        2.0961395242       -0.0902117616
 C         -2.4883334981        3.0638665648       -0.1853489822
 C         -3.7167417342        2.7532692148       -0.7418313725
 C         -3.9868878249        1.4790572399       -1.2076854175
 C         -2.9996726204        0.5041370009       -1.1173927745
 C         -1.7742673934        0.8184384279       -0.5520907171
 H         -1.0105303814        0.0586062246       -0.5095728817
 N         -3.2187458739       -0.7905882820       -1.5981293019
 S         -2.3035126588       -2.0946152545       -1.1217630513
 O         -0.9670549286       -2.0108412249       -1.6586633699
 O         -3.0827748144       -3.2369645400       -1.5520749530
 C         -2.2647120618       -2.0386443581        0.6603274012
 C         -3.4666175691       -2.0363880065        1.3408111283
 C         -3.4522609301       -1.9768673085        2.7245566433
 C         -2.2429624420       -1.9173639131        3.4009205839
 C         -1.0449326221       -1.9284420262        2.7042629247
 C         -1.0544021037       -1.9922848627        1.3203542099
 H         -0.1403777084       -1.9905020535        0.7458070482
 H         -0.1023007929       -1.8639578722        3.2234286364
 H         -2.2312756493       -1.8613117013        4.4779591736
 H         -4.3815104712       -1.9715528119        3.2710803120
 H         -4.3877430324       -2.0884300166        0.7838900553
 H         -4.1639584784       -1.0248618511       -1.8569537296
 H         -4.9425862174        1.2418028482       -1.6484788808
 H         -4.4773355632        3.5156283913       -0.8142737241
 H         -2.2962233428        4.0632690198        0.1696650523
 H         -0.2251581122        2.1653071678        1.6121647518
 C          0.2856640588        3.8224327879        0.3579511551
 C         -0.0515968864        4.8553915808        1.3904848235
 C          1.3581494595        4.3682751145        1.2514659580
 H          2.0981317851        5.0290386739        0.8254978546
 H          1.7489116631        3.7087545439        2.0126984125
 H         -0.2799290022        5.8575927937        1.0600795195
 H         -0.6089998886        4.5357730637        2.2580188262
 H          0.3025814613        4.1238403382       -0.6833858948
