  62
        -98.93226556
 C         -2.8354179314       -0.0516792645       -0.0798135410
 C         -2.1753393643        0.7677527701       -1.0257417111
 C         -1.9529206511        2.1740033410       -0.6373746417
 C         -2.3699528832        2.6079438854        0.5630916160
 C         -2.3000576820        3.9937064336        1.1572828094
 C         -1.0394442596        4.8280388762        0.9071904224
 C          0.2759262629        4.0359269133        0.9190556079
 H          0.9797117402        4.5252859027        1.5952443478
 H          0.1107344865        3.0258765563        1.3010343486
 C          0.9325856438        3.9417360009       -0.4592678616
 H          0.8726981418        4.9143888799       -0.9531353572
 H          1.9901188037        3.7035831265       -0.3209897494
 C          0.3380269494        2.8713157300       -1.3714043094
 H          0.5251406183        1.8865484418       -0.9320282802
 H          0.8591639812        2.9108706812       -2.3316092838
 C         -1.1749562779        2.9961365091       -1.6249555338
 H         -1.4906147422        4.0363972870       -1.6223488730
 H         -1.3924688039        2.5694069272       -2.6078786435
 H         -1.0118318071        5.5897713907        1.6886168349
 H         -1.1312880757        5.3554427746       -0.0411966156
 H         -2.4288676380        3.8448186623        2.2324936206
 H         -3.1725422917        4.5531280717        0.8051411020
 O         -3.0079237108        1.7840684667        1.4445907833
 C         -3.2266845229        0.4498998283        1.1632956301
 O         -3.7882807124       -0.1812593874        2.0823027205
 O         -1.7838226110        0.3700665926       -2.1545894301
 C         -3.0771695659       -1.5411615376       -0.2847738297
 C         -1.8484902931       -2.2817567790        0.1782867736
 C         -1.9030404926       -3.2555803875        1.1671800650
 C         -0.7417035270       -3.8373817252        1.6491900709
 C          0.4964179113       -3.4476583796        1.1690758588
 C          0.5560239544       -2.4845344440        0.1722133109
 C         -0.6059916754       -1.9240034436       -0.3276808732
 H         -0.5463782845       -1.1707841585       -1.0996575243
 N          1.8233702696       -2.0124696545       -0.2752456502
 S          2.3684087817       -0.8252338817        0.8116737432
 O          2.6307299019       -1.4735602974        2.0716051665
 O          1.4384530348        0.2830282875        0.8460546267
 C          3.9011444267       -0.3248497451        0.0517449188
 C          5.0402457820       -1.0665872814        0.2985016972
 C          6.2237305768       -0.7013332186       -0.3228376922
 C          6.2474776659        0.3913399106       -1.1768403052
 C          5.0956118264        1.1258288101       -1.4146427942
 C          3.9082530092        0.7647764463       -0.7973886141
 H          2.9909512902        1.3119784087       -0.9483006615
 H          5.1158089343        1.9759748409       -2.0774150411
 H          7.1697315744        0.6742368216       -1.6591635428
 H          7.1219614154       -1.2684510568       -0.1394495039
 H          4.9739035611       -1.9016386916        0.9758143234
 H          1.7214718894       -1.5560173562       -1.1753420262
 H          1.4103991257       -3.8555981400        1.5682034742
 H         -0.8012759988       -4.5870977969        2.4235955548
 H         -2.8613630671       -3.5338404825        1.5814457874
 H         -3.9007152717       -1.7987540767        0.3993862776
 C         -3.5196168335       -1.8976857128       -1.6966674281
 C         -2.7124606564       -2.7532329228       -2.6226834618
 C         -3.9593474951       -3.2997877861       -1.9999425980
 H         -4.8306323817       -3.4470874108       -2.6196476418
 H         -3.8444141117       -4.0330555706       -1.2156836233
 H         -2.7216314022       -2.4986823454       -3.6714577897
 H         -1.7636777070       -3.1310539146       -2.2750261508
 H         -4.0902264947       -1.0988614383       -2.1577987598
