  62
        -98.93570093
 C          2.3111054684        0.6905672966        0.8776464522
 C          3.4904570012        1.0183418067        0.1626585618
 C          4.6028305339        0.0612750017        0.2892498311
 C          4.4532090967       -1.0381022228        1.0482423667
 C          5.4802721155       -2.1209755378        1.2063240842
 C          5.2894732240       -3.2248944349        0.1566700546
 C          5.1425474278       -2.7006096613       -1.2718510930
 H          4.2116017317       -2.1338146454       -1.3486889433
 H          5.0443148466       -3.5684492697       -1.9276532247
 C          6.3102068403       -1.8265565306       -1.7506160076
 H          6.5867659602       -2.1350583650       -2.7609737969
 H          7.1798266300       -1.9889264671       -1.1128952452
 C          5.9985699971       -0.3301816311       -1.8110089173
 H          5.0741233261       -0.1711973534       -2.3716499549
 H          6.8042724355        0.1630642383       -2.3610916842
 C          5.8684594916        0.3789386585       -0.4571760277
 H          5.8404709615        1.4556385726       -0.6481640475
 H          6.7431573696        0.1608226628        0.1585689504
 H          4.3882627954       -3.7890480043        0.4083690298
 H          6.1421896715       -3.9040965467        0.2115286214
 H          6.4743723228       -1.6873617320        1.1164862338
 H          5.3709554975       -2.5551253655        2.2015462711
 O          3.3110090949       -1.3138428353        1.7303183410
 C          2.2202319101       -0.4652233581        1.6579389593
 O          1.2399403385       -0.8375389264        2.3364015665
 H         -1.5690397132        0.9446441714        0.9077295744
 C         -1.1661657140        0.9214725382       -0.0936634867
 C          0.1762253982        1.1990554843       -0.3066297864
 C          0.6766424639        1.1407657843       -1.6041203309
 C         -0.1528984309        0.8067572252       -2.6584568487
 C         -1.4896775518        0.5230777991       -2.4412921827
 C         -2.0017455590        0.5849120407       -1.1502252370
 N         -3.3679858146        0.3500448750       -0.9175041248
 S         -3.8493395259       -0.4209936857        0.5057812337
 O         -3.7750628851        0.5224420493        1.5925921789
 O         -3.1248158821       -1.6613198710        0.6708796264
 C         -5.5584769417       -0.7450922441        0.1144660889
 C         -5.9450536568       -2.0154813335       -0.2675689927
 C         -7.2736382863       -2.2425589440       -0.5919502710
 C         -8.1866016762       -1.2005486523       -0.5324669429
 C         -7.7835854188        0.0693738760       -0.1462113818
 C         -6.4576469058        0.3027390537        0.1813794254
 H         -6.1002934004        1.2690656884        0.4965057196
 H         -8.4968774077        0.8762478617       -0.0980951165
 H         -9.2194495928       -1.3799534021       -0.7859136135
 H         -7.5905855969       -3.2294228226       -0.8885579765
 H         -5.2012555702       -2.7957891981       -0.2920261870
 H         -3.8301144643       -0.0593845769       -1.7188130546
 H         -2.1341631599        0.2587946613       -3.2659461102
 H          0.2465720850        0.7625752941       -3.6605624736
 H          1.7182869644        1.3660110485       -1.7744697288
 C          1.0625902538        1.5573073971        0.8590942673
 H          0.5145610399        1.2908225429        1.7778272120
 C          1.3682930664        3.0482656594        0.9341113210
 C          1.0960868251        4.0086804493       -0.1805233922
 C          0.2387249052        4.0293853709        1.0466036766
 H          0.3352330338        4.8532297203        1.7374818546
 H         -0.7644378978        3.6364240085        0.9653014254
 H          0.6695177487        3.6249181126       -1.0934588264
 H          1.8060883238        4.8068805294       -0.3333056942
 H          2.2477522057        3.2496261008        1.5371500838
 O          3.6291455281        2.0454179813       -0.5484711475
