  62
        -98.94135086
 C          1.8175172801        0.9805731697        0.6825559402
 C          2.0509296104       -0.4088628703        0.8678298895
 C          3.4297852905       -0.8707957399        0.6826079794
 C          4.3919032804        0.0176564604        0.3756379901
 C          5.8549300205       -0.2842815591        0.1956453202
 C          6.2234610909       -0.7901277683       -1.2056108600
 C          5.7728691212       -2.2170451482       -1.5204497609
 H          6.2814922414       -2.5181736575       -2.4384761310
 H          6.1093173612       -2.8861123686       -0.7278381312
 C          4.2588105213       -2.3721895384       -1.7210157013
 H          3.8120266511       -1.3908452784       -1.8969637808
 H          4.0698003816       -2.9732534879       -2.6133215116
 C          3.5296781412       -3.0457775592       -0.5583330118
 H          2.4620219613       -3.0672459693       -0.7910244420
 H          3.8746298614       -4.0773105492       -0.4585795923
 C          3.7056287208       -2.3399639599        0.7925527687
 H          4.7110422608       -2.5096897599        1.1775638487
 H          2.9839096608       -2.7611977905        1.4964103183
 H          5.8054628308       -0.1040959479       -1.9459663597
 H          7.3118171509       -0.7478621180       -1.2909621998
 H          6.3889699203        0.6513423809        0.3750857108
 H          6.1718318005       -1.0136686395        0.9417272598
 O          4.1329824801        1.3400846005        0.2121330008
 C          2.8480116600        1.8533040201        0.3323485909
 O          2.7874959398        3.0787945103        0.1080443016
 O          1.1448422905       -1.2233961207        1.1879811788
 C          0.3890640400        1.4517212993        0.8853555402
 C         -0.3715006498        1.5668119799       -0.4141926898
 C          0.0527576302        2.4059153506       -1.4388931593
 C         -0.6890729396        2.5166224011       -2.6005879893
 C         -1.8738172294        1.8171934809       -2.7526556599
 C         -2.3071906494        0.9780033002       -1.7334810905
 C         -1.5452564296        0.8469779897       -0.5810613704
 H         -1.8771676396        0.1794882692        0.1992739291
 N         -3.4986114493        0.2500886500       -1.8539551811
 S         -4.4920693794        0.0460396991       -0.5215010114
 O         -5.7987691593       -0.2200593809       -1.0840641018
 O         -4.4052602698        1.1680319486        0.3831977192
 C         -3.8897573093       -1.4336160513        0.2622016878
 C         -3.7438268389       -2.5702883208       -0.5078154628
 C         -3.2935919487       -3.7331823810        0.0954968266
 C         -3.0013981890       -3.7408633217        1.4510480767
 C         -3.1575220294       -2.5926487422        2.2114137973
 C         -3.6068913195       -1.4261483020        1.6133570179
 H         -3.7361380098       -0.5091052123        2.1671357284
 H         -2.9266359295       -2.5994551328        3.2646802673
 H         -2.6476889289       -4.6461266319        1.9187367662
 H         -3.1692873185       -4.6289630007       -0.4914864539
 H         -3.9830285887       -2.5260936902       -1.5572438528
 H         -4.0266667792        0.4311907504       -2.6950284811
 H         -2.4593294193        1.9194597413       -3.6538694900
 H         -0.3489051496        3.1674913016       -3.3921178989
 H          0.9660066501        2.9673767007       -1.3143953188
 H         -0.0910773299        0.6567528689        1.4726364497
 C          0.2692416996        2.7521383588        1.6585483010
 C         -1.0682596006        3.1347812982        2.2161729210
 C          0.0357937193        2.7118419779        3.1373144709
 H          0.5084256091        3.4616713677        3.7539320814
 H         -0.0349557905        1.7414680877        3.6066860803
 H         -1.3515830908        4.1762102982        2.1987362815
 H         -1.8950799504        2.4588026081        2.0517683004
 H          0.8970560595        3.5433854392        1.2703011715
