  62
        -98.94731254
 C         -1.8202002268       -1.0701961374       -0.4474011849
 C         -1.3266794572       -1.8089237247        0.6582196708
 C         -0.2687721655       -2.7893962728        0.3541702251
 C          0.1823683353       -2.9172887719       -0.9055413325
 C          1.2926045837       -3.8285526692       -1.3395216457
 C          2.6551157760       -3.1246682413       -1.2837747769
 C          2.9473950115       -2.4314721635        0.0473422558
 H          2.2779965582       -1.5780873611        0.1754690726
 H          3.9611888183       -2.0279801636       -0.0105977155
 C          2.8276953567       -3.3371473300        1.2803887901
 H          3.6780364287       -3.1441376838        1.9378790614
 H          2.8765291156       -4.3859480746        0.9828603312
 C          1.5643765362       -3.0966283611        2.1096673573
 H          1.4593348736       -2.0260893137        2.3049689074
 H          1.6897121597       -3.5949692533        3.0753570835
 C          0.2554018390       -3.6120824862        1.4970053680
 H         -0.5126227709       -3.5669937339        2.2750718807
 H          0.3764556566       -4.6551746664        1.1941420607
 H          2.6918182672       -2.3719510657       -2.0746357158
 H          3.4308671619       -3.8664770179       -1.4831314654
 H          1.0973752559       -4.1381683826       -2.3678616854
 H          1.3017011723       -4.7098359179       -0.7009995556
 O         -0.3114525888       -2.1912952253       -1.9407770485
 C         -1.3123223110       -1.2563013217       -1.7367439289
 O         -1.6665880855       -0.6591280664       -2.7730671274
 O         -1.7328306157       -1.6815833791        1.8429320900
 C         -2.8784711386        0.0164045048       -0.3416620478
 C         -2.2397266279        1.3647165038       -0.0937525092
 C         -2.6992701583        2.4997786797       -0.7521309500
 C         -2.0963809470        3.7269974640       -0.5450844457
 C         -1.0018764825        3.8392971879        0.2936250006
 C         -0.5328070596        2.7108811894        0.9551340427
 C         -1.1716198298        1.4911577737        0.7818021875
 H         -0.8106345851        0.6325775932        1.3261842448
 N          0.6015542907        2.7783536363        1.7859194419
 S          1.8400479098        1.6832451415        1.5094730131
 O          1.4468322535        0.3660384069        1.9309121313
 O          2.9852970469        2.2559196360        2.1832396500
 C          2.0908638886        1.7308595432       -0.2549317767
 C          2.9534819470        2.6734927475       -0.7796957155
 C          3.0954796355        2.7598236318       -2.1550131412
 C          2.3650136605        1.9171631217       -2.9800442027
 C          1.5016670342        0.9771390998       -2.4390190468
 C          1.3651078656        0.8805309480       -1.0635398220
 H          0.7003006410        0.1580354055       -0.6163257268
 H          0.9173183329        0.3251277537       -3.0705093630
 H          2.4667296586        1.9904291227       -4.0513188504
 H          3.7689741663        3.4861015926       -2.5807089257
 H          3.5040859861        3.3059467616       -0.1021953183
 H          0.9824196774        3.7093597051        1.8828490942
 H         -0.5110214557        4.7901225890        0.4349576865
 H         -2.4661031949        4.6008234895       -1.0590077007
 H         -3.5259877508        2.4125703097       -1.4406987294
 H         -3.3612848985        0.0607040180       -1.3284420011
 C         -3.9493112471       -0.2535745151        0.6968842587
 C         -5.3215856082        0.3143806240        0.5008593750
 C         -5.0920145492       -1.1593849657        0.3544427639
 H         -5.4658378201       -1.8246303138        1.1179213777
 H         -5.1117792618       -1.5826013548       -0.6396070395
 H         -5.8586393026        0.6672812354        1.3677260537
 H         -5.5086676931        0.8859428580       -0.3953302563
 H         -3.5631641829       -0.3028788833        1.7065074664
