  62
        -98.93993385
 C          0.9505154269        1.6584960485        0.6671411120
 C          1.7792990506        1.6480070720       -0.4780967735
 C          2.8957805788        0.6847450296       -0.4662770108
 C          3.0414617048       -0.1347354297        0.5891447972
 C          4.0717435442       -1.2147259186        0.7718006360
 C          3.5268664455       -2.5695598813        0.2896856088
 C          3.7405567192       -2.8638244708       -1.1938544878
 H          4.8011248537       -3.0487127583       -1.3769776870
 H          3.2018101255       -3.7858306977       -1.4221795933
 C          3.2628947900       -1.7672657021       -2.1487640492
 H          3.1166241122       -2.2177460093       -3.1323049342
 H          2.2929490158       -1.3887908642       -1.8199310396
 C          4.2608342677       -0.6068614273       -2.2783050683
 H          5.2117309266       -0.9031381113       -1.8356538220
 H          4.4585020626       -0.4153208976       -3.3351136784
 C          3.8002697150        0.7248410045       -1.6679809213
 H          4.6811330718        1.3269118958       -1.4201841046
 H          3.2365379192        1.2912837625       -2.4161329779
 H          2.4582118085       -2.5944173391        0.5136723201
 H          4.0065813064       -3.3639403663        0.8646429955
 H          4.9952470054       -0.9545515853        0.2631180556
 H          4.2676741864       -1.2791607839        1.8440310386
 O          2.1928861844       -0.1186443930        1.6550224570
 C          1.1366734997        0.7699265595        1.7249561685
 O          0.4454390158        0.6718105141        2.7596056799
 H         -1.3057399208        0.2439575408        0.2953589748
 C         -1.6640802445        0.9659921105       -0.4243367742
 C         -1.2083656937        2.2773317853       -0.3538163851
 C         -1.6756459509        3.1953998277       -1.2838441994
 C         -2.5691147425        2.8002895255       -2.2649168147
 C         -3.0331804002        1.4994470742       -2.3204354685
 C         -2.5798704094        0.5743026799       -1.3857599228
 N         -3.0282603133       -0.7551632880       -1.4064940338
 S         -3.3758880801       -1.5412012086        0.0328176426
 O         -4.3848158882       -2.5157030289       -0.3285980474
 O         -3.7386467759       -0.6064015131        1.0710705977
 C         -1.8887723635       -2.4220158994        0.4570413123
 C         -1.4797339063       -3.4363331733       -0.3874761040
 C         -0.3685945655       -4.1880349788       -0.0441806111
 C          0.3117152371       -3.9164047606        1.1340748600
 C         -0.1027799884       -2.8864505857        1.9644009430
 C         -1.2155730676       -2.1320739133        1.6264295203
 H         -1.5583422675       -1.3235748062        2.2543206703
 H          0.4338804939       -2.6542979083        2.8709279116
 H          1.1660955571       -4.5141040632        1.4111120129
 H         -0.0381701760       -4.9854719838       -0.6900386720
 H         -2.0466186335       -3.6272583943       -1.2834129417
 H         -3.7224239311       -0.9549408929       -2.1121813317
 H         -3.7388157957        1.1972367956       -3.0794597803
 H         -2.9171906385        3.5198105018       -2.9905668169
 H         -1.3348428707        4.2168078492       -1.2481152478
 C         -0.2270015633        2.6138514632        0.7433633436
 H         -0.7226032294        2.4108326268        1.7045853038
 C          0.2429187481        4.0524864956        0.7313580362
 C         -0.6072867669        5.1229874487        1.3445386358
 C          0.6571124845        4.6898519671        2.0221658782
 H          1.5023258274        5.3615979723        2.0179687916
 H          0.5794266973        4.0920883512        2.9190293880
 H         -0.6298178772        6.0960935423        0.8777241133
 H         -1.5465680051        4.8233552943        1.7849222204
 H          0.8181156215        4.2976359398       -0.1535881496
 O          1.6012758601        2.4053373973       -1.4679876227
