  62
        -98.94128523
 C          2.5235917063       -0.3416951654       -0.0350988100
 C          2.1423521397       -1.3605807243        0.8671785191
 C          1.4446822959       -2.5217032127        0.2922731621
 C          1.2184912684       -2.5629901767       -1.0321642233
 C          0.5722562651       -3.6576394663       -1.8457899761
 C         -0.6788172453       -4.3326366070       -1.2708559245
 C         -1.6032722480       -3.4093090118       -0.4634616134
 H         -1.3184684362       -2.3640718458       -0.6041700440
 H         -2.6249317035       -3.5172996743       -0.8342187951
 C         -1.6111542607       -3.7356394999        1.0316809313
 H         -2.5133908951       -3.3088684825        1.4767279973
 H         -1.6586843560       -4.8204268738        1.1565085982
 C         -0.4255061364       -3.1881432782        1.8244444387
 H         -0.5047652127       -3.5599862441        2.8495196526
 H         -0.4997097399       -2.0977715553        1.8736893889
 C          0.9651753656       -3.5503316607        1.2758264175
 H          0.9717091525       -4.5507189652        0.8486972601
 H          1.6731031017       -3.5220135186        2.1090629335
 H         -0.3846432053       -5.1745639735       -0.6453663331
 H         -1.2285459679       -4.7462548136       -2.1182411923
 H          0.3255133187       -3.1870160082       -2.8005656401
 H          1.3298403947       -4.4213496791       -2.0473482713
 O          1.6252112387       -1.5681010968       -1.8701179858
 C          2.2325514853       -0.4194627293       -1.3959262502
 O          2.4816330679        0.4297109913       -2.2745030768
 O          2.3824224282       -1.3059201149        2.1053589326
 C          3.1224669640        0.9446223538        0.5092483093
 C          2.1415993511        2.0590306226        0.2335832369
 C          2.4774291402        3.2760262389       -0.3433928301
 C          1.4902538384        4.2001951386       -0.6438303959
 C          0.1571674706        3.9239154429       -0.4021371013
 C         -0.1852854350        2.7166593725        0.1977043766
 C          0.8085534332        1.8178020745        0.5405839122
 H          0.5319797344        0.8862202903        1.0131190094
 N         -1.5238761433        2.3789907372        0.4672836541
 S         -1.9297250122        0.7400595963        0.3304679848
 O         -1.6670612690        0.1021220680        1.5958534621
 O         -1.3015585527        0.1609922933       -0.8347463813
 C         -3.6919555850        0.8600847578        0.0854882557
 C         -4.1981631891        0.8345306460       -1.2001433731
 C         -5.5661554266        0.9606730797       -1.3849208065
 C         -6.3995050113        1.1129713342       -0.2868973170
 C         -5.8769008995        1.1350886267        0.9977801417
 C         -4.5102498606        1.0079839198        1.1894602441
 H         -4.0581573118        1.0089834952        2.1675119303
 H         -6.5280112401        1.2498103327        1.8492194759
 H         -7.4634208891        1.2113601480       -0.4336587731
 H         -5.9749455445        0.9393547888       -2.3822470556
 H         -3.5113753168        0.7049185774       -2.0215493201
 H         -2.1839905671        2.9719684661       -0.0172444749
 H         -0.6118209837        4.6302361189       -0.6757899063
 H          1.7624624100        5.1399740598       -1.1001167638
 H          3.5069330044        3.4932738185       -0.5767510799
 H          3.1920523892        0.8002007089        1.5980088848
 C          4.5071237515        1.1954686408       -0.0454313926
 C          5.4975252624        2.0012962192        0.7397913059
 C          5.6799153483        0.5209357887        0.5985264110
 H          6.4741013892        0.1546246178       -0.0343054179
 H          5.4807541457       -0.1051998445        1.4560455037
 H          6.1720681594        2.6523257440        0.2046780039
 H          5.1816757413        2.3826879275        1.6990111134
 H          4.5108957481        1.2844505251       -1.1258097284
