  62
        -98.93523430
 C          2.0859593101        1.0575933504        0.5384769494
 C          2.3912015597        0.3165092302       -0.6248107805
 C          2.7848932195       -1.0913916499       -0.4261173104
 C          2.8178511195       -1.5902039697        0.8226144196
 C          3.1681770293       -2.9863409898        1.2725157097
 C          4.3992552291       -3.6323126101        0.6176606896
 C          4.0504375187       -4.7795828801       -0.3317331302
 H          3.2378538986       -5.3599287199        0.1100826500
 H          4.9163935385       -5.4400977003       -0.4143107403
 C          3.6571890386       -4.3545947202       -1.7453444802
 H          3.2988539883       -5.2434631602       -2.2696900501
 H          4.5437611886       -3.9995397004       -2.2750619404
 C          2.5812511388       -3.2695994500       -1.8295501002
 H          1.7988712989       -3.4424811797       -1.0908941001
 H          2.1105215687       -3.3422120800       -2.8123862801
 C          3.1324288491       -1.8435302301       -1.6820533004
 H          2.7460808792       -1.2153086601       -2.4908678104
 H          4.2202144591       -1.8499512303       -1.7984169805
 H          5.0272716791       -4.0333456901        1.4147808696
 H          4.9821257892       -2.8734323903        0.0981548695
 H          2.2909789191       -3.6225324096        1.1292530099
 H          3.3195232594       -2.9060741697        2.3515031097
 O          2.4902571098       -0.8414468895        1.9163675996
 C          2.1103569701        0.4824467105        1.8061986295
 O          1.8323116404        1.0336774107        2.8926494195
 O          2.3389523597        0.8058194701       -1.7845186606
 C          1.6537903604        2.5062120105        0.4208946793
 C          0.4194021003        2.6188480507       -0.4422868705
 C          0.2169346804        3.6569220506       -1.3428909906
 C         -0.9492976197        3.7204496908       -2.0859181204
 C         -1.9355844499        2.7629622610       -1.9428399402
 C         -1.7411761000        1.7174260511       -1.0455515401
 C         -0.5749216499        1.6591275209       -0.3013193903
 H         -0.4377030300        0.8474784409        0.3998004098
 N         -2.7054314602        0.7056011413       -0.9094028199
 S         -2.8139408602       -0.1614772885        0.5297754802
 O         -2.8342305899        0.7414813516        1.6595860701
 O         -1.7969584504       -1.1844629488        0.5397324702
 C         -4.4204048304       -0.9068675082        0.3190224505
 C         -5.5294928702       -0.2770849879        0.8521033206
 C         -6.7803333403       -0.8410137677        0.6560651408
 C         -6.9009528307       -2.0173887777       -0.0684116990
 C         -5.7788936409       -2.6387813080       -0.5962777991
 C         -4.5251401107       -2.0803940583       -0.4033121194
 H         -3.6238531609       -2.5298967785       -0.7866665894
 H         -5.8757458812       -3.5546950381       -1.1564526390
 H         -7.8752042808       -2.4544877775       -0.2197818389
 H         -7.6536264702       -0.3619377875        1.0683290609
 H         -5.3851492199        0.6299483821        1.4167794605
 H         -3.6127788302        0.9643305814       -1.2710593698
 H         -2.8433091100        2.8138221711       -2.5242532501
 H         -1.0931391796        4.5308235807       -2.7843417505
 H          0.9735627605        4.4146069004       -1.4645792508
 H          1.3800707706        2.8234792606        1.4392610193
 C          2.8078254605        3.3604239102       -0.0638824709
 C          2.9444112308        4.7815649302        0.3908018789
 C          3.8832020707        3.7354812401        0.9095876789
 H          4.9077176106        3.7429711198        0.5693524288
 H          3.7639573607        3.3979399502        1.9293389090
 H          3.3293012809        5.5111851900       -0.3056238112
 H          2.1939166610        5.1649320304        1.0656733790
 H          3.1108275403        3.1104189300       -1.0740420509
