  62
        -98.93912031
 C          2.1962610832        1.2168162146        0.2230108049
 C          1.8893523857        0.2299813342       -0.7437792506
 C          2.7167394217       -0.9910799840       -0.7115337033
 C          3.6894163892       -1.1085929581        0.2085555574
 C          4.6897954944       -2.2240265771        0.3870733028
 C          4.1871948820       -3.6660919261        0.2417082106
 C          2.7525158347       -3.9040287410        0.7347108522
 H          2.7471115657       -4.7562865234        1.4168816919
 H          2.4021141449       -3.0367706545        1.2978434312
 C          1.7727545690       -4.2058106902       -0.4016793913
 H          2.2467495151       -4.9017550188       -1.0970430815
 H          0.8950142516       -4.7067088915        0.0148663094
 C          1.2719066553       -2.9868034012       -1.1746138319
 H          0.6144105512       -2.3945172042       -0.5326581984
 H          0.6653398733       -3.3464289128       -2.0090047494
 C          2.3616709173       -2.0480956623       -1.7182152748
 H          3.2362252302       -2.6064663452       -2.0423887914
 H          1.9500964166       -1.5151015748       -2.5794597563
 H          4.8754498304       -4.2972888743        0.8064506758
 H          4.2610677268       -3.9763651489       -0.7994874564
 H          5.0990334267       -2.0795474770        1.3901067931
 H          5.5084088786       -2.0584008187       -0.3196247401
 O          3.9310199159       -0.1407997512        1.1390768062
 C          3.2009505958        1.0354210820        1.1710018877
 O          3.5319035255        1.8225844160        2.0817906276
 O          0.9792318393        0.3589505675       -1.6006742981
 C          1.4406970080        2.5320165933        0.2379836026
 C         -0.0504591512        2.3240357730        0.3505738114
 C         -0.9685391903        3.1539704500       -0.2821931879
 C         -2.3285315350        2.9470673704       -0.1291352824
 C         -2.8048714580        1.9048045860        0.6440137547
 C         -1.8957630572        1.0620683190        1.2711698708
 C         -0.5337445436        1.2850354810        1.1346548531
 H          0.1685524466        0.6295704772        1.6359556596
 N         -2.3685655250       -0.0233929445        2.0265046776
 S         -3.6439017337       -0.9145196253        1.4067038401
 O         -4.8901409275       -0.3013872633        1.7970015456
 O         -3.4329817028       -2.2606436920        1.8943459130
 C         -3.4863555749       -0.8572973884       -0.3704985979
 C         -2.2526642457       -1.1034846474       -0.9373289574
 C         -2.1170673464       -1.0365015126       -2.3134905784
 C         -3.2200994817       -0.7403395888       -3.0991877157
 C         -4.4574269655       -0.5098545397       -2.5175739312
 C         -4.5938876156       -0.5616381684       -1.1396265819
 H         -5.5321644394       -0.3700524267       -0.6445700556
 H         -5.3132637674       -0.2806800411       -3.1319080059
 H         -3.1113520738       -0.6849774485       -4.1708393297
 H         -1.1439966799       -1.1890721040       -2.7515199827
 H         -1.4042885699       -1.3250177301       -0.3100548698
 H         -1.6423435389       -0.6257548758        2.3844595013
 H         -3.8607015964        1.7295114032        0.7742716683
 H         -3.0280231446        3.6035415381       -0.6231734659
 H         -0.6173588103        3.9661916543       -0.8968410747
 H          1.7759586268        3.0625398855        1.1421826947
 C          1.8317399727        3.3518627176       -0.9769007439
 C          1.9250748738        4.8449586541       -0.8921987976
 C          3.1723713134        4.0207103797       -0.9912756408
 H          3.7329336217        4.0363341273       -1.9138966798
 H          3.7877529619        3.9121290500       -0.1095038776
 H          1.6316929097        5.4302206254       -1.7507269206
 H          1.7020116154        5.3088066668        0.0568855682
 H          1.4830175994        2.9106061584       -1.9035277256
