  62
        -98.94495016
 C          1.8775650297        0.7208474414       -0.1628097531
 C          2.4305856509        0.0543241118        0.9562028974
 C          3.5149685355       -0.8939528232        0.6700526131
 C          3.8827581325       -1.1050649471       -0.6072010011
 C          5.0052805035       -2.0033530643       -1.0375754537
 C          6.3293459529       -1.2321213454       -1.1320795465
 C          6.6420439343       -0.3866094436        0.1025545886
 H          7.6124772446        0.0856916813       -0.0644492154
 H          5.9039966320        0.4147809418        0.1818376564
 C          6.6769792693       -1.1745893395        1.4195169725
 H          6.7864557010       -2.2396014206        1.2115234861
 H          7.5547606288       -0.8642671377        1.9902421747
 C          5.4601973486       -0.9569057573        2.3207096141
 H          5.6850716317       -1.3793022580        3.3037077781
 H          5.2918109491        0.1144607458        2.4557213427
 C          4.1507052826       -1.5937108831        1.8385126111
 H          4.3161840179       -2.6493170354        1.6127672317
 H          3.4279769870       -1.5271525334        2.6572620105
 H          6.2819590025       -0.5686302365       -1.9986674417
 H          7.1349032730       -1.9498223320       -1.2976450612
 H          5.1005679395       -2.8236223216       -0.3285590192
 H          4.7614445348       -2.4112611311       -2.0200716290
 O          3.2943901228       -0.4834636626       -1.6604359637
 C          2.2829567765        0.4479464203       -1.4696218007
 O          1.8381505935        0.9448271933       -2.5205028350
 H         -0.3505707049       -0.6488195410        0.3352341485
 C         -0.9372513438       -0.0248207703       -0.3277229574
 C         -0.5023855321        1.2677805454       -0.5978149832
 C         -1.2731281512        2.0630267308       -1.4345918130
 C         -2.4285966046        1.5614564869       -2.0103255673
 C         -2.8459128463        0.2686718138       -1.7565523166
 C         -2.0929252577       -0.5287693512       -0.9027683820
 N         -2.5214006038       -1.8366508099       -0.6186325732
 S         -4.1413114477       -2.0631864037       -0.2626167483
 O         -4.1822368596       -3.2284230284        0.5930795618
 O         -4.8986362604       -2.1565914605       -1.4859072101
 C         -4.6311469968       -0.6032278259        0.6391410534
 C         -5.6254323245        0.2136550229        0.1409819365
 C         -5.9652572682        1.3598399553        0.8418098221
 C         -5.3047313646        1.6697594877        2.0202359279
 C         -4.3102204386        0.8367198176        2.5099806034
 C         -3.9681484126       -0.3115946669        1.8148849212
 H         -3.2015226981       -0.9806485966        2.1724611447
 H         -3.7963866651        1.0785584055        3.4266117121
 H         -5.5651888246        2.5651118801        2.5622415649
 H         -6.7394626575        2.0081871543        0.4644939959
 H         -6.1099954421       -0.0631592426       -0.7810801147
 H         -1.9292898978       -2.3309881157        0.0320532861
 H         -3.7333362426       -0.1410861834       -2.2109325422
 H         -3.0106759799        2.1865054822       -2.6699022356
 H         -0.9645775113        3.0729675174       -1.6470581287
 C          0.7712354287        1.7359836371        0.0622641605
 H          0.6041517443        1.7449316641        1.1497677346
 C          1.2149533898        3.1162242457       -0.3726878277
 C          0.6284238474        4.3340388601        0.2745838696
 C          2.0437253525        3.9384119146        0.5667691711
 H          2.8443187911        4.5371599230        0.1589238897
 H          2.2682217474        3.5121301043        1.5338116570
 H          0.4580282977        5.2097438242       -0.3330978380
 H         -0.1091348138        4.1821591498        1.0477858804
 H          1.4620913728        3.1618767838       -1.4272163612
 O          2.0300507682        0.2385648846        2.1380509251
