  62
        -98.94496054
 C         -2.0680229180       -1.3393331917        0.0215390328
 C         -2.6492934245       -0.6743242330        1.1271912038
 C         -3.8030160236        0.1801196751        0.8266409236
 C         -4.2442584459        0.2838388738       -0.4404384742
 C         -5.4208210970        1.1000518635       -0.9026841602
 C         -5.0912639735        2.5764675312       -1.1626867695
 C         -4.8517115079        3.4200802566        0.0901554930
 H         -4.8446302290        4.4656863557       -0.2240441554
 H         -5.6878974618        3.2926241946        0.7783297361
 C         -3.5340322796        3.1149498456        0.8164031928
 H         -3.0303438546        4.0516747424        1.0667447968
 H         -2.8689752603        2.5650030394        0.1456898895
 C         -3.6957263691        2.3246710470        2.1153029603
 H         -2.7013452969        2.1368321593        2.5288698478
 H         -4.2525418522        2.9225989476        2.8400476622
 C         -4.4032015511        0.9731640832        1.9483360701
 H         -4.2705646535        0.4008363119        2.8696925009
 H         -5.4690661840        1.1250767124        1.7808875792
 H         -5.9336443597        3.0074147350       -1.7085695004
 H         -4.2135800895        2.6296717274       -1.8113818752
 H         -5.7594307744        0.6535767846       -1.8400357229
 H         -6.2271004307        1.0288546213       -0.1722141823
 O         -3.6600015626       -0.3747427169       -1.4759265349
 C         -2.5439670842       -1.1773926406       -1.2798837428
 O         -2.0863650623       -1.6808417054       -2.3223790418
 H         -0.0233965152        0.2968820760        0.3650635882
 C          0.6199067651       -0.2886725885       -0.2802880039
 C          0.3421201501       -1.6383285413       -0.4650768654
 C          1.1863271357       -2.3809145967       -1.2791775443
 C          2.2557217825       -1.7754014692       -1.9178235277
 C          2.5129406803       -0.4276282449       -1.7521647665
 C          1.6880734580        0.3200825762       -0.9200700642
 N          1.9478609369        1.6867222620       -0.7286141376
 S          3.5328087066        2.1743609116       -0.5112344517
 O          3.4483602454        3.3965516940        0.2570551167
 O          4.1888643411        2.2807376400       -1.7906426527
 C          4.2964887807        0.8813822150        0.4523379613
 C          3.7596863045        0.5893995873        1.6907027499
 C          4.3216352096       -0.4303551605        2.4411227420
 C          5.4057453912       -1.1371675117        1.9431510385
 C          5.9367994241       -0.8280682853        0.7007581180
 C          5.3772866662        0.1897465279       -0.0551757919
 H          5.7563063426        0.4612045142       -1.0269545062
 H          6.7810259522       -1.3777504571        0.3170869536
 H          5.8382931169       -1.9327661949        2.5289157658
 H          3.9094330962       -0.6711375651        3.4079320108
 H          2.9190217315        1.1598025661        2.0527263482
 H          1.3275884096        2.1386830558       -0.0738699081
 H          3.3275025779        0.0609398320       -2.2615554458
 H          2.8955926419       -2.3618099427       -2.5591243012
 H          1.0011175974       -3.4320339305       -1.4249995777
 C         -0.8524020398       -2.2189422806        0.2521173427
 H         -0.6578596261       -2.1655343681        1.3338333734
 C         -1.1499858269       -3.6559709363       -0.1178204408
 C         -0.4243191457       -4.7757651031        0.5645421634
 C         -1.8689749869       -4.5226646032        0.8707999970
 H         -2.6069680751       -5.2199940902        0.5036467076
 H         -2.1225063387       -4.0828984084        1.8244650570
 H         -0.1705184393       -5.6525262178       -0.0117793489
 H          0.3051971514       -4.5141611790        1.3157661264
 H         -1.4086619652       -3.7719396607       -1.1640935252
 O         -2.2194486135       -0.7841010338        2.3075780634
