  62
        -98.93903431
 C          1.9802743750        1.5919144248       -0.2478925988
 C          2.8147647429        1.2076822954        0.8355150787
 C          3.9729954544        0.3718564123        0.5100042396
 C          4.2002380212        0.0272442925       -0.7699530190
 C          5.3417980124       -0.8152069863       -1.2716257709
 C          5.0940548794       -2.3260689537       -1.1635115327
 C          5.1448591597       -2.8940904379        0.2555417657
 H          5.1755036206       -3.9816119532        0.1636180866
 H          6.0717346872       -2.5814465474        0.7374325699
 C          3.9482752470       -2.5074390618        1.1364795468
 H          3.1318268405       -2.1462443383        0.5059886736
 H          3.5781140241       -3.3934771923        1.6573398140
 C          4.2576122055       -1.4526343149        2.1992111901
 H          3.3317434824       -1.2247255617        2.7336422686
 H          4.9731710890       -1.8568458702        2.9186629037
 C          4.8159012095       -0.1378110022        1.6394669831
 H          5.8470200167       -0.2737355548        1.3140969859
 H          4.7930882592        0.6107637517        2.4350873874
 H          4.1242004430       -2.5538928416       -1.6127393547
 H          5.8612762250       -2.8255613641       -1.7597858949
 H          6.2534748649       -0.5549028070       -0.7330319930
 H          5.4752104129       -0.5626698746       -2.3257876791
 O          3.3995477175        0.4394602457       -1.7855788617
 C          2.2555410481        1.2067948648       -1.5599543063
 O          1.6314850188        1.4677741895       -2.6035138365
 O          2.5955012260        1.5602614758        2.0250875865
 C          0.7524162306        2.3949390742        0.1482940314
 C         -0.2155743374        1.4947420385        0.8765872253
 C         -0.8078137820        1.9032849935        2.0664599832
 C         -1.6777839038        1.0705049031        2.7465832889
 C         -1.9915585556       -0.1768345621        2.2378347912
 C         -1.4095625389       -0.5929884413        1.0464393659
 C         -0.5193159200        0.2352118768        0.3784846642
 H         -0.0643610549       -0.1097782407       -0.5392288771
 N         -1.7272879395       -1.8484827103        0.4790257633
 S         -2.6729220906       -1.7849365032       -0.9043613680
 O         -2.9605185381       -3.1607853607       -1.2428200594
 O         -2.0095423080       -0.9914896323       -1.9044921089
 C         -4.1676388300       -0.9743434295       -0.3605547176
 C         -5.2445493345       -1.7457095579        0.0312165694
 C         -6.3752563526       -1.1165041410        0.5269441711
 C         -6.4046388126        0.2658738458        0.6332126071
 C         -5.3142486934        1.0260215017        0.2387404527
 C         -4.1822300142        0.4030406397       -0.2628491956
 H         -3.3197175103        0.9631406474       -0.5860503950
 H         -5.3366597089        2.1007575197        0.3196752760
 H         -7.2829200404        0.7549273991        1.0238831823
 H         -7.2261033829       -1.7048601668        0.8305038060
 H         -5.1769793279       -2.8167199868       -0.0723111139
 H         -2.1517293451       -2.4896654775        1.1361585618
 H         -2.6735454101       -0.8304236369        2.7609492890
 H         -2.1189638521        1.3962200699        3.6757888867
 H         -0.5614816901        2.8747701485        2.4683827725
 H          1.1108430403        3.1360709080        0.8825871684
 C          0.0903030091        3.1702006138       -0.9776687583
 C         -1.0327572578        2.6254810906       -1.8021196556
 C         -1.2986763233        3.7136275992       -0.8079017744
 H         -1.5114485058        4.7049164418       -1.1781618314
 H         -1.8306203445        3.4521774607        0.0947224928
 H         -1.0348003153        2.8651458739       -2.8546301285
 H         -1.3768731992        1.6215935552       -1.6044770225
 H          0.8020398913        3.7980687995       -1.5032428574
