  62
        -98.94663666
 C          1.1463433600        1.3424209605        0.3008758996
 C          1.3702736200        0.3500226005       -0.6841690904
 C          2.3509196704       -0.6862739492       -0.3359136006
 C          2.9196308106       -0.6970262790        0.8821505393
 C          3.9267401010       -1.6958682987        1.3840788491
 C          5.3725095208       -1.3736466983        0.9809873387
 C          5.7046171506       -1.6124957683       -0.4926616213
 H          6.7910320705       -1.5598282280       -0.5882029816
 H          5.4029316008       -2.6219809284       -0.7736557112
 C          5.0757243301       -0.5974743685       -1.4575392712
 H          4.7553311400        0.2856116714       -0.8999304812
 H          5.8280970498       -0.2648025883       -2.1763124014
 C          3.8896924600       -1.1339322789       -2.2595885409
 H          4.2283161701       -1.9319103188       -2.9241817010
 H          3.5017854397       -0.3219540390       -2.8799506009
 C          2.7363240604       -1.6686181091       -1.4001080606
 H          1.8673858003       -1.8184290694       -2.0450714404
 H          3.0131588907       -2.6236644690       -0.9554767407
 H          6.0281116412       -2.0049824881        1.5852077486
 H          5.5846771906       -0.3333847682        1.2384171386
 H          3.6688957412       -2.6942855288        1.0296299292
 H          3.8635853013       -1.6825578386        2.4743483591
 O          2.6141650406        0.2229863410        1.8337555093
 C          1.7586354403        1.2736273307        1.5576775694
 O          1.6181080203        2.0757767208        2.5022616594
 O          0.8018281098        0.3076601103       -1.8083916603
 C          0.2505055296        2.5542858403        0.0853935597
 C         -1.2060127803        2.1974377399        0.2519922501
 C         -1.9699172102        2.7535850897        1.2710951602
 C         -3.2990768501        2.3998514194        1.4324166206
 C         -3.8903367500        1.4764720492        0.5879231507
 C         -3.1300007601        0.9100106893       -0.4260408594
 C         -1.8051570602        1.2788587997       -0.5981859397
 H         -1.2185617603        0.8252322798       -1.3834444399
 N         -3.7052183100       -0.0859391109       -1.2530909692
 S         -3.9202853694       -1.5565843909       -0.4796031291
 O         -4.2811237694       -2.5017936810       -1.5109951890
 O         -4.8746003492       -1.3769036511        0.5845895611
 C         -2.3248053692       -1.9756564704        0.2032357505
 C         -1.5118789991       -2.8550882302       -0.4825777496
 C         -0.2636861589       -3.1580003899        0.0354126101
 C          0.1560215512       -2.5631714897        1.2147381500
 C         -0.6635385389       -1.6664102999        1.8816678601
 C         -1.9193090091       -1.3712561203        1.3767763904
 H         -2.5866349591       -0.6915185904        1.8813497105
 H         -0.3256975188       -1.1906759698        2.7894271100
 H          1.1267460714       -2.7978867094        1.6212293398
 H          0.3789405012       -3.8519429097       -0.4817660100
 H         -1.8768461692       -3.2951151004       -1.3968814295
 H         -3.1638541802       -0.2447686807       -2.0928835894
 H         -4.9141681099        1.1650640389        0.7161534210
 H         -3.8791883000        2.8424535693        2.2279385707
 H         -1.5102147902        3.4561373199        1.9510553101
 H          0.5144345296        3.2614154704        0.8828786796
 C          0.4944769991        3.2287618903       -1.2515289304
 C          0.1061230187        4.6650324002       -1.4230413303
 C          1.5538305288        4.2820090406       -1.3580792707
 H          2.1440261086        4.3305138507       -2.2609332108
 H          2.1066197989        4.5278773107       -0.4627411108
 H         -0.3011266016        4.9788872200       -2.3718618703
 H         -0.3215218713        5.1732615501       -0.5720179303
 H          0.3660929391        2.5674336502       -2.0981018403
