  62
        -98.93467335
 C         -2.3104166218       -1.0977800435       -0.5790170387
 C         -3.4931572727       -0.7718729690        0.1335801305
 C         -4.1671103212        0.4846543887       -0.2292510545
 C         -3.6339459646        1.2611620089       -1.1876364700
 C         -4.1557744464        2.5594906288       -1.7511006749
 C         -4.7475004274        3.5755807975       -0.7662662415
 C         -4.0668810893        3.6151339006        0.6098354907
 H         -3.1386073210        3.0406180059        0.5868017513
 H         -3.8020277413        4.6475832461        0.8458762087
 C         -4.9633090200        3.0914988834        1.7344564642
 H         -4.5888269718        3.4731590588        2.6873644482
 H         -5.9701422049        3.4909599288        1.5946243397
 C         -5.0407661345        1.5702377675        1.8558947088
 H         -4.0840803445        1.1784937806        2.2129450178
 H         -5.7879642420        1.3312998309        2.6164623096
 C         -5.3984134114        0.8205338247        0.5621955725
 H         -6.1181665614        1.3790123253       -0.0310771384
 H         -5.8453722896       -0.1370705986        0.8425490252
 H         -4.6673558519        4.5554532546       -1.2400957349
 H         -5.8099644962        3.3782299749       -0.6318382264
 H         -3.3031380550        3.0061779706       -2.2686022959
 H         -4.9048004049        2.3211395110       -2.5121166103
 O         -2.4877324019        0.9183926046       -1.8386804172
 C         -1.7976084773       -0.2506946724       -1.5597815927
 O         -0.7746107533       -0.3987248149       -2.2587155372
 O         -3.9790146225       -1.5140678612        1.0279043897
 C         -1.6161505134       -2.3975525735       -0.2036780489
 C         -0.4137342619       -2.1018997467        0.6605314080
 C         -0.4715564407       -2.2897642763        2.0370970570
 C          0.6134198827       -1.9782308690        2.8375164513
 C          1.7765418296       -1.4714263090        2.2852418015
 C          1.8380572096       -1.2666670581        0.9131209532
 C          0.7535078955       -1.5913466191        0.1108736195
 H          0.8009155236       -1.4063706409       -0.9517632741
 N          3.0159525168       -0.7438432731        0.3282575211
 S          3.4753097240        0.8036441541        0.8311599751
 O          3.7729804031        0.7607279318        2.2401611583
 O          2.4892519869        1.7826145616        0.4216478996
 C          4.9790219644        1.0090995160       -0.1013257406
 C          4.9313052030        1.6331923130       -1.3329031326
 C          6.0999514282        1.7546258784       -2.0683711344
 C          7.2884746448        1.2489768861       -1.5635990267
 C          7.3199572239        0.6244274334       -0.3256151573
 C          6.1552916668        0.5005558555        0.4148872481
 H          6.1322552857        0.0298950362        1.3836297258
 H          8.2463719960        0.2340598295        0.0635733410
 H          8.1957305237        1.3443249455       -2.1389715872
 H          6.0778883106        2.2414770217       -3.0301742832
 H          3.9865459826        2.0183573661       -1.6833769248
 H          2.9219662144       -0.7177869139       -0.6803392399
 H          2.6207525930       -1.2079403239        2.9005023009
 H          0.5535381716       -2.1304040613        3.9047445567
 H         -1.3837229615       -2.6660701045        2.4779295587
 H         -2.3445045566       -2.9406076289        0.4133493194
 C         -1.2679721100       -3.2558106702       -1.4029860961
 C         -0.9692783337       -4.7088041116       -1.1912859630
 C         -2.2421913867       -4.2956968639       -1.8654360296
 H         -2.3456948737       -4.4673546525       -2.9263474485
 H         -3.1668090807       -4.3939314030       -1.3156330371
 H         -0.1961601387       -5.1679562173       -1.7877891198
 H         -1.0301667241       -5.0872567045       -0.1821596574
 H         -0.7088458460       -2.7306239424       -2.1661847194
