  62
        -98.93074521
 C          1.8617386142        1.2645206985       -0.2533165201
 C          2.2844879493        0.0120229485       -0.7628705654
 C          3.4932032392       -0.5610230534       -0.1357868198
 C          4.0997640068        0.0956160233        0.8676148185
 C          5.3709499839       -0.3255702461        1.5490244132
 C          6.5833259719        0.0057047332        0.6556034483
 C          7.3458592641       -1.2181260736        0.1476212613
 H          8.0299384557       -0.8767756999       -0.6321870681
 H          7.9500998087       -1.6231373118        0.9620703295
 C          6.4860297943       -2.3576485003       -0.4078878221
 H          7.1547108465       -3.0194944968       -0.9624249855
 H          6.0790845066       -2.9463674137        0.4156644359
 C          5.3317595747       -1.9411175079       -1.3287190680
 H          5.2631481746       -2.6703370583       -2.1386346899
 H          5.5358284636       -0.9741479955       -1.7890416170
 C          3.9510324421       -1.8993278355       -0.6470487170
 H          3.1911278826       -2.1941603008       -1.3774582262
 H          3.9219975547       -2.6303864072        0.1661539534
 H          6.2310266184        0.5947989253       -0.1936684625
 H          7.2805362155        0.6372545377        1.2081440106
 H          5.4308384692        0.2225917773        2.4894744419
 H          5.3352227615       -1.3905359965        1.7677454189
 O          3.6557409753        1.2906205816        1.3377315351
 C          2.5343715940        1.8943669942        0.7979180522
 O          2.2389427525        2.9858974126        1.3244386023
 H         -0.3082320834       -0.4147167844        0.0897813778
 C         -0.8777223361        0.4106367118        0.4901054283
 C         -0.5403007132        1.7177657417        0.1638899937
 C         -1.2880153190        2.7569184654        0.7073708635
 C         -2.3446690341        2.4988456576        1.5616780859
 C         -2.6889788509        1.1954580400        1.8700170284
 C         -1.9516784516        0.1490311512        1.3285192730
 N         -2.2939647066       -1.1959595424        1.6001799806
 S         -3.0028135688       -2.0203095623        0.3232855431
 O         -3.3818968919       -3.3097130383        0.8568248419
 O         -2.1156000586       -2.0160466500       -0.8080507232
 C         -4.4670706412       -1.0642720292       -0.0374196490
 C         -5.6601957873       -1.4115768179        0.5657338220
 C         -6.7777994278       -0.6226206389        0.3452535459
 C         -6.6802842594        0.5012067899       -0.4613475585
 C         -5.4744536401        0.8384869153       -1.0568764511
 C         -4.3540027846        0.0509495385       -0.8437627309
 H         -3.4019252335        0.2788753290       -1.2953226026
 H         -5.3983228195        1.7114310930       -1.6848460235
 H         -7.5492335436        1.1176564855       -0.6290503638
 H         -7.7175185461       -0.8844200353        0.8042777354
 H         -5.6894368614       -2.2962246169        1.1813433915
 H         -2.8807405433       -1.3004529280        2.4174289254
 H         -3.5160975888        0.9855386780        2.5317569522
 H         -2.9070587835        3.3165941534        1.9848976084
 H         -1.0179363306        3.7755199081        0.4713480851
 C          0.6301987070        2.0134477948       -0.7397410121
 H          0.8723904131        3.0813213904       -0.6098626558
 C          0.3085788206        1.8158606301       -2.2127751599
 C         -0.6992364359        0.8374667208       -2.7261429118
 C         -1.0010361518        2.3036933568       -2.7615243883
 H         -1.0066042548        2.8055482118       -3.7172205458
 H         -1.7222773068        2.6862673858       -2.0545683126
 H         -1.2093131780        0.1999655703       -2.0209229243
 H         -0.4671220288        0.3302632386       -3.6505797448
 H          1.1863077208        1.9640979859       -2.8340316703
 O          1.7112444919       -0.6130083156       -1.6903527769
