  62
        -98.94405851
 C         -2.1955443675       -1.3240618785       -0.1351220610
 C         -2.5604957428       -0.2407074338       -0.9704714745
 C         -3.9274934950        0.2721479204       -0.7917710498
 C         -4.7388484052       -0.3049006567        0.1127779397
 C         -6.1326530615        0.1510234597        0.4312496537
 C         -6.1348081909        1.1691232010        1.5801768858
 C         -5.1255917725        2.3036483204        1.4024931200
 H         -5.2385386494        2.9759614283        2.2557941202
 H         -4.1139050142        1.8936141171        1.4495418664
 C         -5.2880508007        3.0998813524        0.1001348700
 H         -5.2128910047        4.1649521789        0.3294849290
 H         -6.2806136259        2.9281119922       -0.3180381266
 C         -4.2310113155        2.7987125747       -0.9641308830
 H         -3.2335386725        2.8789679511       -0.5237851597
 H         -4.3061792208        3.5624096305       -1.7429993096
 C         -4.3462772455        1.4318941002       -1.6507562193
 H         -5.3634475715        1.2909441869       -2.0219078915
 H         -3.6647221503        1.4325812547       -2.5065139836
 H         -7.1398973079        1.5849681603        1.6711019190
 H         -5.8988204542        0.6441613047        2.5086658388
 H         -6.5781243664        0.5908825907       -0.4588613995
 H         -6.7197983256       -0.7195706096        0.7282912409
 O         -4.3578706216       -1.3543437753        0.8846753456
 C         -3.0785733322       -1.8751370284        0.7958716241
 O         -2.8515885386       -2.8168085697        1.5816290915
 H          0.9303131560       -0.3272647808       -1.6384615580
 C          0.9822729848       -0.1498674926       -0.5763416555
 C          0.1816066983       -0.8801201862        0.2869714426
 C          0.2577451530       -0.6155539355        1.6521608168
 C          1.1047069614        0.3628608848        2.1368721338
 C          1.8911261958        1.1025299363        1.2704028881
 C          1.8223060717        0.8459303268       -0.0922007777
 N          2.6130509289        1.5945698070       -0.9775134305
 S          4.2084062591        1.8862583774       -0.5785055055
 O          4.2863818140        2.9698445794        0.3697104371
 O          4.8816320657        2.1021211062       -1.8398680661
 C          4.7784426886        0.3762082996        0.1825228821
 C          4.7525972904       -0.7805001853       -0.5714783705
 C          5.1614075841       -1.9691765600        0.0102691452
 C          5.5856195854       -1.9815177276        1.3304465379
 C          5.6097912137       -0.8113700974        2.0727981470
 C          5.2009624681        0.3806250848        1.4959619784
 H          5.2029098585        1.3125201198        2.0375491296
 H          5.9422862899       -0.8235558292        3.0983017821
 H          5.9000817453       -2.9092537371        1.7818993295
 H          5.1450672400       -2.8804968574       -0.5656637677
 H          4.4235152713       -0.7358706213       -1.5971213352
 H          2.5023610918        1.3418704210       -1.9477946153
 H          2.5420285716        1.8838027962        1.6278776798
 H          1.1510066887        0.5571539091        3.1976695574
 H         -0.3684365077       -1.1835787484        2.3266491967
 C         -0.7982668528       -1.9214769858       -0.1957555507
 H         -0.7955270909       -2.7495859822        0.5255022166
 C         -0.4887349319       -2.4742152778       -1.5708137976
 C          0.6484391175       -3.4356557153       -1.7372718816
 C         -0.7654176982       -3.9189066695       -1.8533582827
 H         -1.1415742770       -4.1894214299       -2.8287010440
 H         -1.1717481215       -4.5155152801       -1.0496235683
 H          1.2033197185       -3.7060034164       -0.8518315849
 H          1.2458329225       -3.3799860279       -2.6345172501
 H         -0.6843758020       -1.7700560591       -2.3700556529
 O         -1.7960857493        0.2743000393       -1.8279633023
