  62
        -98.94533800
 C         -2.1356493330       -0.8831680001        0.0485484377
 C         -2.8562211966       -0.2349466553        1.0792724641
 C         -3.5802381059        0.9795843831        0.6878083699
 C         -3.4843648954        1.4352206904       -0.5746896687
 C         -4.1396377399        2.6753800810       -1.1195957092
 C         -5.5940575568        2.4687668829       -1.5647917829
 C         -6.6043953394        2.3004194969       -0.4292539453
 H         -6.4924163363        3.1216152043        0.2793794580
 H         -7.5991039996        2.3847650063       -0.8712234816
 C         -6.5059285076        0.9600370031        0.3124230181
 H         -7.5062508254        0.5407219557        0.4408593192
 H         -5.9364698281        0.2504294712       -0.2921788903
 C         -5.8709973651        1.0483198324        1.7001786626
 H         -6.5035300287        1.6513095495        2.3552909895
 H         -5.8183171106        0.0395677522        2.1174600583
 C         -4.4551278148        1.6395645686        1.7107258214
 H         -4.4946875642        2.7154597030        1.5410487479
 H         -4.0137179323        1.4560176130        2.6935332621
 H         -5.6365234151        1.5983060330       -2.2234862332
 H         -5.8814093279        3.3440168889       -2.1519216463
 H         -4.0945962473        3.4714583765       -0.3756094889
 H         -3.5521138780        2.9794438227       -1.9887894904
 O         -2.7383384461        0.8106721398       -1.5249829084
 C         -2.0618144568       -0.3690297391       -1.2464013437
 O         -1.4428492173       -0.8462262023       -2.2157428483
 H          0.1015534404       -0.1604119440        1.2731203197
 C          0.7002195636       -0.8397033982        0.6776427187
 C          0.0937970248       -1.9587272763        0.1189067226
 C          0.8716601695       -2.8204151365       -0.6420771048
 C          2.2145230067       -2.5535829682       -0.8482902489
 C          2.8110166323       -1.4352588500       -0.2964808460
 C          2.0435962098       -0.5698315754        0.4726548560
 N          2.6439418062        0.5644895777        1.0513098932
 S          3.4892523616        1.6004334527        0.0319564900
 O          3.4596128818        2.8863765535        0.6955805900
 O          2.9731902803        1.5609719205       -1.3169090305
 C          5.1529638570        0.9669041446        0.0735588232
 C          5.7873452619        0.6198897601       -1.1030852603
 C          7.0846736075        0.1341955786       -1.0465540300
 C          7.7208349898        0.0060980688        0.1786691381
 C          7.0704834561        0.3618501543        1.3510648720
 C          5.7741703400        0.8488984863        1.3016063658
 H          5.2345090728        1.1399289242        2.1872308364
 H          7.5685517878        0.2609342185        2.3018380431
 H          8.7295842491       -0.3733470758        0.2199794920
 H          7.5915729763       -0.1423242667       -1.9570880168
 H          5.2497267807        0.7311466339       -2.0314143859
 H          2.0135044563        1.0942350280        1.6366473082
 H          3.8546777751       -1.2220787911       -0.4600240968
 H          2.8050905370       -3.2273660448       -1.4500290809
 H          0.4249797457       -3.6948742942       -1.0854315922
 C         -1.3804409964       -2.1607077510        0.3692927253
 H         -1.5246110516       -2.3210298966        1.4483374943
 C         -1.9743399825       -3.3335439622       -0.3811868656
 C         -1.8624517574       -4.7197616172        0.1774062419
 C         -3.1843059363       -4.0143744155        0.1824809111
 H         -3.9525409297       -4.3479806697       -0.4989014746
 H         -3.5665659488       -3.6465488381        1.1236108141
 H         -1.7249642312       -5.5422254394       -0.5080218399
 H         -1.3482965621       -4.8382564797        1.1190128339
 H         -1.9277059834       -3.2057843467       -1.4568787583
 O         -2.8847520873       -0.6458855874        2.2710946425
