  62
        -98.94610516
 C          1.5789015965        1.3117194675        0.4002778724
 C          1.5375255338        0.3019555234       -0.5913443757
 C          2.4029936891       -0.8617923928       -0.3522283906
 C          3.1299916159       -0.9408981219        0.7767785161
 C          4.0247302457       -2.0818752451        1.1782033610
 C          5.4358463782       -2.0081430472        0.5791368913
 C          5.5235762843       -2.3131916034       -0.9168019662
 H          6.5814990724       -2.4364262522       -1.1569763931
 H          5.0311670131       -3.2641167389       -1.1229529500
 C          4.9369519304       -1.2202062960       -1.8211632631
 H          4.8366152123       -0.2923897188       -1.2532160623
 H          5.6278607747       -1.0179232698       -2.6427544123
 C          3.5849011632       -1.5693923831       -2.4435601722
 H          3.7018489829       -2.4180302875       -3.1213207544
 H          3.2484330261       -0.7128027912       -3.0333477476
 C          2.4871484838       -1.9061080149       -1.4255608933
 H          1.5292336534       -1.9274774431       -1.9516382248
 H          2.6694975320       -2.8894062512       -0.9918414612
 H          5.8467192342       -1.0146482848        0.7729798881
 H          6.0548722787       -2.7330801133        1.1125829004
 H          4.1109247115       -2.0406397724        2.2660349652
 H          3.5613006355       -3.0292814176        0.9013442826
 O          3.1143267746        0.0342447333        1.7227620826
 C          2.3613723112        1.1822544480        1.5525531910
 O          2.4659825126        2.0041132389        2.4837298842
 H         -1.1360692755        1.7418879600       -1.5051318313
 C         -1.5106438770        1.7425586132       -0.4942219851
 C         -0.6996087640        2.1788935728        0.5417239655
 C         -1.1989177497        2.1399849606        1.8403174388
 C         -2.4772513530        1.6761846151        2.0924121389
 C         -3.2733024319        1.2122362548        1.0592549591
 C         -2.7756067543        1.2339333885       -0.2365382681
 N         -3.5426461183        0.6862450965       -1.2824843027
 S         -4.1639421079       -0.8429838985       -0.9945733764
 O         -4.1879618248       -1.5031391313       -2.2815990535
 O         -5.4434688337       -0.7182140746       -0.3394172991
 C         -3.0170452837       -1.6552493394        0.1113889671
 C         -3.5064479487       -2.2383547118        1.2630803306
 C         -2.6250547701       -2.8644668353        2.1293172517
 C         -1.2710823481       -2.8904078607        1.8341211475
 C         -0.7948968310       -2.3016923385        0.6732174221
 C         -1.6721662896       -1.6812579244       -0.2017306962
 H         -1.3072440690       -1.2112436415       -1.1017174279
 H          0.2599250678       -2.3065383632        0.4461162153
 H         -0.5799966213       -3.3679677994        2.5107527143
 H         -2.9941659999       -3.3232364372        3.0323768312
 H         -4.5649050314       -2.1828065462        1.4595873997
 H         -3.0664688920        0.7087818398       -2.1734691000
 H         -4.2627509368        0.8223772190        1.2371792329
 H         -2.8532196439        1.6601450497        3.1038915069
 H         -0.5631714589        2.4607573651        2.6534844567
 C          0.7360887063        2.5757642319        0.3010938137
 H          1.0574676545        3.2178129817        1.1311175962
 C          0.9568293417        3.3178771856       -1.0003280009
 C          0.4741200608        4.7308916456       -1.1233702077
 C          1.9427905282        4.4448114210       -1.0411335876
 H          2.5441970176        4.5709769292       -1.9290826082
 H          2.4611578517        4.6904575849       -0.1256490612
 H          0.0651781491        5.0573162475       -2.0673218417
 H         -0.0056856770        5.1694653508       -0.2614453136
 H          0.8992722253        2.6863933982       -1.8774344770
 O          0.8245622186        0.3463367271       -1.6284833731
