  62
        -98.94513583
 C         -1.5298469811       -0.8161761359       -0.0003791534
 C         -2.8082272766       -1.4198320924        0.0387386646
 C         -3.9020225400       -0.5718990232        0.5319808443
 C         -3.6318771200        0.6856646416        0.9279707613
 C         -4.6586594492        1.6736990989        1.3993277715
 C         -5.1988067305        2.5125053706        0.2326260937
 C         -5.6333634422        1.6827775125       -0.9755116486
 H         -6.0241180165        2.3762722955       -1.7233610273
 H         -4.7555662291        1.2006619815       -1.4117726675
 C         -6.6931674905        0.6165964773       -0.6649258079
 H         -7.4623173161        0.6509125855       -1.4394869194
 H         -7.1801219512        0.8429490709        0.2843757948
 C         -6.1596731294       -0.8168382392       -0.6309501955
 H         -7.0148457587       -1.4980447294       -0.6221357823
 H         -5.5914597199       -1.0180691864       -1.5426977092
 C         -5.2790652745       -1.1724043399        0.5736508485
 H         -5.7924832472       -0.8991593387        1.4978957483
 H         -5.1333376009       -2.2567582432        0.5696572969
 H         -4.4152990849        3.2017605848       -0.0900477859
 H         -6.0432604464        3.1025238476        0.5935107301
 H         -5.4737429670        1.1402549061        1.8844699963
 H         -4.1880845423        2.3381869851        2.1258118338
 O         -2.3854457899        1.2218505753        0.9000275022
 C         -1.3018721338        0.4912290400        0.4312712896
 O         -0.2194359164        1.1027231688        0.4537750296
 H          2.3532432298       -1.1027407636       -0.7883959155
 C          2.0615353795       -1.3470847218        0.2181087026
 C          0.7446670136       -1.6561663023        0.5169982785
 C          0.4245384675       -2.0139804075        1.8246764066
 C          1.3935411418       -2.0356731103        2.8080080121
 C          2.7013836533       -1.6904946017        2.5133482705
 C          3.0344156753       -1.3479003983        1.2091342649
 N          4.3522022347       -1.0134871698        0.8748455036
 S          4.6960787984        0.0228340151       -0.3857175509
 O          4.5414759413       -0.6619006365       -1.6453887411
 O          6.0335286924        0.4947458142       -0.0933248978
 C          3.5446675569        1.3799859719       -0.2781168648
 C          3.4433549643        2.0710838090        0.9117681907
 C          2.5697130575        3.1421435344        0.9906382619
 C          1.8187779491        3.5047570644       -0.1155938765
 C          1.9357537149        2.8042441839       -1.3043389240
 C          2.8053891013        1.7301260682       -1.3883279533
 H          2.9205373734        1.1532526027       -2.2928838957
 H          1.3444903590        3.0844055778       -2.1620144741
 H          1.1319636000        4.3336721331       -0.0493493843
 H          2.4698437880        3.6866452597        1.9159657595
 H          4.0428388861        1.7697363911        1.7557180089
 H          4.9834444080       -0.8969298420        1.6528689885
 H          3.4569064900       -1.6921083554        3.2838280964
 H          1.1286615894       -2.3130926655        3.8172855006
 H         -0.5999802715       -2.2685875719        2.0602049372
 C         -0.3492627048       -1.6153424182       -0.5201045510
 H         -0.7256026790       -2.6380114936       -0.6718222763
 C          0.1089954546       -1.0584599852       -1.8517291179
 C          0.7989904187       -1.9425785826       -2.8457098113
 C         -0.5999139393       -1.4716473999       -3.1050376765
 H         -0.7628057937       -0.7319204573       -3.8745024167
 H         -1.4053558210       -2.1850142458       -3.0076487313
 H          0.9437612985       -2.9780203012       -2.5763939667
 H          1.6056121955       -1.5298985066       -3.4335475883
 H          0.4316581212       -0.0254065428       -1.7761598506
 O         -3.0233757400       -2.6109819708       -0.3154638363
