  62
        -98.93985052
 C         -0.9047218266       -1.5598962583        0.3793663055
 C         -1.4973464593       -0.9185865766       -0.7347185384
 C         -2.3886616303        0.2285269842       -0.4465352005
 C         -2.6456703008        0.5550709796        0.8326662398
 C         -3.5434229857        1.6440348355        1.3562941150
 C         -5.0362005294        1.2978905934        1.2264754993
 C         -5.4383733085        0.6588022549       -0.1001980398
 H         -4.8480654908       -0.2458445005       -0.2571707828
 H         -6.4847584417        0.3531956284       -0.0183523789
 C         -5.3117770547        1.5632173356       -1.3237355717
 H         -5.6967133619        1.0064093857       -2.1819466316
 H         -5.9452436545        2.4426708546       -1.1873134487
 C         -3.8960198187        2.0354027910       -1.6614041883
 H         -3.5777881652        2.8320416056       -0.9939251971
 H         -3.9258608768        2.4696602991       -2.6653133091
 C         -2.8451110758        0.9302819912       -1.7018659706
 H         -3.1800041063        0.1417028083       -2.3856970244
 H         -1.9286019081        1.3350968079       -2.1536309653
 H         -5.2887613714        0.5935868130        2.0226788425
 H         -5.6164208884        2.2083879760        1.3844842360
 H         -3.3070191780        1.7643625259        2.4158288438
 H         -3.3158269256        2.5826633249        0.8589742542
 O         -2.1139153747       -0.1423680709        1.8774150557
 C         -1.2168659578       -1.1741642387        1.6850610184
 O         -0.7766542907       -1.6713075420        2.7411116388
 H          0.9167021856       -0.5534148800       -1.2960369988
 C          1.7359478263       -1.0039981811       -0.7600119090
 C          1.5203598754       -2.0936886395        0.0701699017
 C          2.6122896782       -2.6606173050        0.7188595295
 C          3.8844994826       -2.1499162461        0.5375999713
 C          4.0904502026       -1.0462935857       -0.2710892449
 C          3.0060191120       -0.4684228864       -0.9192113676
 N          3.1660737408        0.6739425333       -1.7253605958
 S          2.1483089334        1.9732300367       -1.4347322993
 O          0.8445741527        1.7415106979       -1.9979840746
 O          2.8686421235        3.1158777607       -1.9559124625
 C          2.0604580223        2.0657409067        0.3438897430
 C          0.9405231888        1.5977747937        0.9987126690
 C          0.9226753270        1.6009829942        2.3845648908
 C          2.0211843331        2.0717480096        3.0866566167
 C          3.1362565155        2.5491593543        2.4140540343
 C          3.1612955457        2.5418820457        1.0293295119
 H          4.0053280003        2.9112600305        0.4697241956
 H          3.9852691781        2.9198125798        2.9653270759
 H          2.0035557472        2.0652810212        4.1650113654
 H          0.0586164903        1.2177922538        2.9049819658
 H          0.1039049723        1.2374773263        0.4198866780
 H          4.1223114437        0.9911145054       -1.8033254287
 H          5.0794896711       -0.6342921637       -0.4005431642
 H          4.7224770745       -2.6037131766        1.0437624075
 H          2.4565359435       -3.5023165939        1.3765949100
 C          0.1326752463       -2.6627186798        0.2663409136
 H          0.1223786098       -3.1823697582        1.2347284541
 C         -0.1644459457       -3.6785019156       -0.8209071547
 C          0.3294391507       -5.0846737655       -0.6716702291
 C         -1.1339330023       -4.7866099036       -0.5455475986
 H         -1.7995566170       -5.0953878232       -1.3373932197
 H         -1.5793636374       -4.8255049056        0.4382205978
 H          0.6744648619       -5.6027810984       -1.5531572933
 H          0.8702304422       -5.3376291117        0.2273262076
 H         -0.1711261297       -3.2476363785       -1.8136696417
 O         -1.3080846303       -1.2586027172       -1.9327800361
