  62
        -98.93635333
 C         -2.6473580119       -1.2056759261        0.2769223902
 C         -2.7711392767       -0.3008029320       -0.8036633864
 C         -3.7541030074        0.7859133921       -0.6386172334
 C         -4.4821624094        0.8634665523        0.4874209987
 C         -5.5553186322        1.8598737798        0.8473598652
 C         -5.2865356075        3.3374770732        0.5282640167
 C         -3.8143214625        3.7654595523        0.6162265560
 H         -3.7424126608        4.6605686280        1.2368030793
 H         -3.2249332335        2.9851967873        1.1010348464
 C         -3.2043115128        4.0920079791       -0.7492228371
 H         -3.9272756907        4.6731242445       -1.3258859665
 H         -2.3242394755        4.7219384633       -0.5990673075
 C         -2.7605845753        2.8854390363       -1.5755510189
 H         -1.8806760715        2.4263952910       -1.1161090577
 H         -2.4556324321        3.2460294305       -2.5611192293
 C         -3.8183671007        1.7845441336       -1.7586696265
 H         -4.8141612099        2.2079856957       -1.8632281033
 H         -3.5766924880        1.2335329038       -2.6716010126
 H         -5.6639171172        3.5701367240       -0.4666214629
 H         -5.8782873666        3.9241926213        1.2328763608
 H         -6.4836935279        1.5514757062        0.3579588465
 H         -5.7036224152        1.7388373405        1.9230335153
 O         -4.3460550646       -0.0403642776        1.4977107689
 C         -3.4352074861       -1.0762292494        1.4252490280
 O         -3.4228686338       -1.8137762840        2.4309253530
 H         -0.0794630510       -0.7441739326       -1.1786153780
 C          0.4113766863       -1.0754998855       -0.2754725446
 C         -0.2686669319       -1.9119377668        0.5980487758
 C          0.3735410432       -2.3203954553        1.7612914555
 C          1.6608713706       -1.8964196448        2.0405970346
 C          2.3310306619       -1.0531710996        1.1722877325
 C          1.6985237827       -0.6392303893        0.0072779317
 N          2.3494433993        0.2434672114       -0.8688612901
 S          3.9498995727       -0.0322521612       -1.2804042437
 O          4.1359264355        0.6394620215       -2.5478548970
 O          4.2745564552       -1.4395381450       -1.2455150567
 C          4.8676115386        0.8369536439       -0.0258080873
 C          5.8483332159        0.1804090194        0.6914326758
 C          6.5569827108        0.8813360146        1.6550028468
 C          6.2745689463        2.2194952173        1.8821392188
 C          5.2885611374        2.8652989195        1.1509842639
 C          4.5776227271        2.1706110443        0.1856218689
 H          3.8064933833        2.6363998089       -0.4051686290
 H          5.0715565731        3.9060997436        1.3301371672
 H          6.8260179169        2.7628337231        2.6331787689
 H          7.3245744643        0.3814892898        2.2236795348
 H          6.0300115495       -0.8622576710        0.4842805752
 H          1.7981323235        0.4890016383       -1.6784343377
 H          3.3326317279       -0.7181067803        1.3868487675
 H          2.1472186670       -2.2223367176        2.9473993114
 H         -0.1488890573       -2.9654449904        2.4529071990
 C         -1.6731686977       -2.3744124923        0.2880640366
 H         -2.0009095947       -3.0201194262        1.1136247886
 C         -1.7086500435       -3.1864643368       -0.9926461820
 C         -1.2321867189       -4.6061318465       -0.9652168466
 C         -2.6928226658       -4.3079903033       -1.1211085849
 H         -3.1572117902       -4.4783707122       -2.0808262276
 H         -3.3449394595       -4.4988462532       -0.2809456312
 H         -0.6889271689       -4.9835391432       -1.8181005364
 H         -0.8944057740       -5.0022511364       -0.0194483723
 H         -1.5037662088       -2.6034479079       -1.8807099541
 O         -2.1099659979       -0.3725556881       -1.8749801492
