  62
        -98.93026844
 C         -2.0909110141       -1.0964651919        0.6496389643
 C         -2.6269460577       -0.5328337842       -0.5338543827
 C         -3.5457122557        0.6027699293       -0.3456664150
 C         -3.7745634164        1.0834875415        0.8885640692
 C         -4.7343434663        2.1794780373        1.2724458658
 C         -4.4330444373        3.5865667847        0.7226543243
 C         -5.1476313993        3.9176968446       -0.5934366958
 H         -6.0369382317        3.2918411204       -0.6767276494
 H         -5.4947305952        4.9521111389       -0.5537092418
 C         -4.3021026071        3.7772765746       -1.8626577792
 H         -3.6428197679        4.6438049992       -1.9498395444
 H         -4.9790909513        3.7909416298       -2.7195005776
 C         -3.4272782447        2.5261328421       -1.9437879976
 H         -2.5620240181        2.6364728865       -1.2853268294
 H         -3.0323189139        2.4502560911       -2.9587720094
 C         -4.1488879414        1.2154576586       -1.5765111678
 H         -5.2141327944        1.3904484508       -1.4316119119
 H         -4.0241153038        0.4860073614       -2.3793173004
 H         -3.3557568033        3.7118804274        0.6160265705
 H         -4.7671096706        4.2977109333        1.4799193460
 H         -4.7119164623        2.2119494922        2.3638004945
 H         -5.7406861208        1.8810397639        0.9688152332
 O         -3.1633086727        0.5694669344        1.9929421673
 C         -2.3150896017       -0.5208015355        1.9023583985
 O         -1.8309360963       -0.8809647362        2.9953860278
 O         -2.3833292745       -0.9572131821       -1.6920539384
 C         -1.1866027964       -2.3158677995        0.6203320395
 C         -0.1328197204       -2.1741365576       -0.4498160216
 C         -0.0571614910       -2.9951440674       -1.5673450674
 C          0.9551780845       -2.8217882361       -2.4942396228
 C          1.9228889384       -1.8511557737       -2.3140928776
 C          1.8513746036       -1.0187822699       -1.2024238850
 C          0.8225016097       -1.1782777903       -0.2884323223
 H          0.7729030936       -0.5221034369        0.5712211095
 N          2.8104367748       -0.0133991286       -0.9924042958
 S          3.2871953471        0.2976162630        0.5971137134
 O          3.3429311894       -0.9362851332        1.3475188504
 O          2.4473820643        1.3399977906        1.1353067410
 C          4.9396436188        0.9189753960        0.3374201498
 C          5.1320224045        2.2667513334        0.1007548450
 C          6.4184969018        2.7290258757       -0.1291790752
 C          7.4844123212        1.8417426074       -0.1204561034
 C          7.2761610297        0.4918372503        0.1203151824
 C          5.9926241036        0.0229722442        0.3507152324
 H          5.7835064046       -1.0150284220        0.5540243210
 H          8.1067202913       -0.1953986828        0.1304717698
 H          8.4841403522        2.2048371875       -0.2990613690
 H          6.5845928995        3.7782571813       -0.3127075375
 H          4.2744675811        2.9193050965        0.1125374544
 H          3.5998742510       -0.0839030241       -1.6198726011
 H          2.7206927481       -1.7276149370       -3.0307605577
 H          0.9974286043       -3.4600498528       -3.3638115222
 H         -0.8056054379       -3.7544682511       -1.7228326652
 H         -0.6647557837       -2.3044132341        1.5927138108
 C         -1.9372458122       -3.6380440842        0.5475824935
 C         -3.2764539427       -3.7965401190        1.2020162777
 C         -3.1635913981       -3.8287066566       -0.2911056919
 H         -3.2963824438       -4.7764301074       -0.7920787370
 H         -3.5225077832       -2.9821226938       -0.8541442821
 H         -3.4855129021       -4.7173334822        1.7254299302
 H         -3.7102517891       -2.9225252622        1.6664648591
 H         -1.2623589919       -4.4851827981        0.6258187225
