  62
        -98.93959152
 C          2.4820657140        1.0577356702        0.3637742956
 C          2.4906429138       -0.1352718255        1.1343909437
 C          3.6357586493       -1.0303669174        0.9402546427
 C          4.6183126760       -0.6777751377        0.0917916184
 C          5.8756928375       -1.4565847833       -0.1849580393
 C          5.7100776831       -2.5622354699       -1.2361229191
 C          4.9157673334       -3.7840748248       -0.7733587809
 H          5.3308847741       -4.1523844210        0.1652022629
 H          5.0611738568       -4.5642759332       -1.5230210162
 C          3.4099687561       -3.5337973245       -0.6087007326
 H          2.8507146197       -4.3484177670       -1.0743887792
 H          3.1314953831       -2.6164347179       -1.1330043056
 C          2.9369253072       -3.4339362753        0.8418742020
 H          3.0835209959       -4.3937610856        1.3425507043
 H          1.8649095794       -3.2165762978        0.8385051421
 C          3.6389886199       -2.3437110371        1.6622640993
 H          4.6594020316       -2.6473692352        1.8960413356
 H          3.0888295754       -2.2104614149        2.5971156537
 H          6.7113938423       -2.8929693594       -1.5210666197
 H          5.2358598133       -2.1339267519       -2.1220196784
 H          6.2483799674       -1.8890542212        0.7439727526
 H          6.6100158912       -0.7375934976       -0.5542384093
 O          4.5859013029        0.4811539865       -0.6133756377
 C          3.5165456562        1.3623861150       -0.5218024524
 O          3.6348247528        2.3546862071       -1.2666369293
 O          1.5866774594       -0.4305208123        1.9631788413
 C          1.2930589902        1.9833501790        0.5572149400
 C          0.2616743698        1.7998140415       -0.5311815405
 C          0.5337554288        2.1257377628       -1.8560476772
 C         -0.4333446498        1.9528863861       -2.8289908277
 C         -1.6830366887        1.4561898351       -2.5034939981
 C         -1.9677362373        1.1335812306       -1.1814254573
 C         -0.9944864702        1.3068904942       -0.2069720852
 H         -1.2188598930        1.0342867555        0.8134424341
 N         -3.2481291966        0.6765617119       -0.8242476321
 S         -3.4225190614       -0.4476062050        0.4225698654
 O         -3.2523970075        0.2261479054        1.6847923417
 O         -2.5804776820       -1.5980944861        0.1798833756
 C         -5.1400905248       -0.8743711402        0.2043183497
 C         -5.4808123196       -2.0600135055       -0.4179915616
 C         -6.8219365175       -2.3588335814       -0.6026696054
 C         -7.7935184825       -1.4704163504       -0.1673502372
 C         -7.4359902569       -0.2842372486        0.4567497542
 C         -6.0974680840        0.0196405663        0.6459948430
 H         -5.7718792586        0.9237290861        1.1333423436
 H         -8.1942264583        0.4027075988        0.7963973298
 H         -8.8361287714       -1.7050688423       -0.3127379580
 H         -7.1028951460       -3.2816440630       -1.0841503585
 H         -4.6910231331       -2.7229294512       -0.7332721569
 H         -3.8001467738        0.4090601937       -1.6284486745
 H         -2.4350407834        1.3221759329       -3.2663436462
 H         -0.2097117763        2.2042242784       -3.8549268980
 H          1.5126211891        2.4985367033       -2.1150087807
 H          0.8323064288        1.6588753730        1.5010115313
 C          1.6752340205        3.4448516295        0.6910760233
 C          0.7119490719        4.3834114485        1.3510183833
 C          1.9827152375        4.0006603308        2.0473685692
 H          2.7671845421        4.7370948014        2.1356292190
 H          1.9197547996        3.3264180051        2.8894595350
 H          0.6206418034        5.3855109877        0.9614700793
 H         -0.2136884085        3.9677488075        1.7210738314
 H          2.2548115206        3.8180649471       -0.1427366980
