  62
        -98.94310506
 C         -1.1599135095       -1.2774413100       -0.0697903102
 C         -1.9189997992       -0.6867256003        0.9746979002
 C         -2.8104955092        0.4160094799        0.5946804108
 C         -2.8323218095        0.8278187503       -0.6853013690
 C         -3.7335007596        1.8983102405       -1.2281099885
 C         -5.0526689698        1.3046526508       -1.7429557483
 C         -5.7272291696        0.3480557905       -0.7596071284
 H         -6.6603532697        0.0151572807       -1.2193752783
 H         -5.0986608696       -0.5365562596       -0.6336840189
 C         -6.0250990392        0.9573840901        0.6175264218
 H         -5.9949532591        2.0458195001        0.5553070222
 H         -7.0391458891        0.6783985800        0.9114715820
 C         -5.0914928889        0.4869902797        1.7345142014
 H         -5.5199188686        0.8015852394        2.6898209317
 H         -5.0476151090       -0.6049607604        1.7401915911
 C         -3.6575720789        1.0285756496        1.6744342412
 H         -3.1676631386        0.7762182192        2.6192148910
 H         -3.6859823588        2.1157860296        1.5763092016
 H         -5.7322580698        2.1256850509       -1.9787113779
 H         -4.8491079300        0.7574136911       -2.6664277985
 H         -3.2251942998        2.3927158308       -2.0578575584
 H         -3.9339536793        2.6300118103       -0.4477946682
 O         -2.0560417498        0.2745320006       -1.6486678094
 C         -1.2116593098       -0.7945940496       -1.3775488900
 O         -0.5826421701       -1.1924984793       -2.3768678103
 O         -1.8613291489       -1.0772456607        2.1700481601
 C         -0.2836552594       -2.4583711802        0.3154107792
 C          1.1248123607       -2.0057009304        0.5985869990
 C          1.7403303410       -2.2738415508        1.8149461087
 C          3.0218412511       -1.8170892509        2.0741444685
 C          3.7123541709       -1.0794063607        1.1288437186
 C          3.1028491805       -0.8057101103       -0.0882166912
 C          1.8233006704       -1.2691487801       -0.3489353210
 H          1.3558427302       -1.0507461598       -1.2978443108
 N          3.7786161003       -0.0065466600       -1.0424880111
 S          3.9372564706        1.5934048198       -0.5620073606
 O          4.1827412203        2.3506305002       -1.7677824004
 O          4.9534971208        1.6701006695        0.4561197792
 C          2.3465273008        2.0065504297        0.1324436300
 C          2.1409341511        1.8539830193        1.4888224300
 C          0.8769241013        2.0888047092        2.0045036504
 C         -0.1528801589        2.4725308995        1.1604153308
 C          0.0705766707        2.6256259300       -0.1989791392
 C          1.3295639306        2.3817170301       -0.7221460397
 H          1.5390320203        2.4868299604       -1.7750810897
 H         -0.7341013694        2.9227978802       -0.8524321889
 H         -1.1368571288        2.6490195395        1.5642135711
 H          0.6945522515        1.9644783189        3.0596151704
 H          2.9690813813        1.5604561090        2.1126112496
 H          3.3264659801       -0.0295822997       -1.9470385310
 H          4.7007568209       -0.6936163408        1.3192342185
 H          3.4859184613       -2.0327994413        3.0243118283
 H          1.2009227611       -2.8297077910        2.5675713687
 H         -0.7098765492       -2.8196775105        1.2642943892
 C         -0.3586823598       -3.6073884699       -0.6818983811
 C          0.7953843800       -4.0650032497       -1.5181330516
 C          0.3237334002       -4.9075990500       -0.3737186317
 H         -0.1953728099       -5.8301674599       -0.5846202719
 H          0.9469777905       -4.9416494503        0.5072936681
 H          0.5831864497       -4.3875287793       -2.5262575316
 H          1.7400201100       -3.5541024597       -1.4183757317
 H         -1.3367597499       -3.6734453596       -1.1481136409
