  62
        -98.94016373
 C         -1.2723626514       -1.3552655862       -0.0860558072
 C         -2.1399012282       -0.8009343826        0.8889717520
 C         -2.9590555849        0.3601284594        0.4925864361
 C         -2.8476807583        0.8265775123       -0.7646300430
 C         -3.5967206157        1.9600981029       -1.4146499414
 C         -5.0425492317        1.5848261550       -1.7751865766
 C         -5.8026547920        0.8374193889       -0.6829063864
 H         -6.7740454923        0.5492741175       -1.0934828509
 H         -5.2689334054       -0.0831538971       -0.4401736446
 C         -6.0531018264        1.6326182384        0.5964202675
 H         -6.6933179028        1.0205417843        1.2368664329
 H         -6.6047662369        2.5426955345        0.3505270783
 C         -4.8087198618        2.0174549435        1.4004441142
 H         -5.1477145858        2.3330797953        2.3913409320
 H         -4.3053365255        2.8740341413        0.9602433282
 C         -3.8179314762        0.8787075191        1.6199342294
 H         -3.1167064702        1.1709752225        2.4104851901
 H         -4.3525494303        0.0096392095        2.0197805864
 H         -5.0156394527        0.9445322106       -2.6604434501
 H         -5.5800375201        2.4979376338       -2.0368693546
 H         -3.0626322996        2.2029271070       -2.3364565598
 H         -3.5756309036        2.8398863016       -0.7780105698
 O         -2.0007516585        0.2615908432       -1.6711421662
 C         -1.1868306074       -0.8139820392       -1.3676198577
 O         -0.4597195306       -1.1665406237       -2.3191154182
 O         -2.2370904794       -1.2633162323        2.0563875315
 C         -0.4125426981       -2.5303801582        0.3538583302
 C          0.9662937479       -2.0229774552        0.6995139890
 C          1.3836765729       -1.9280656529        2.0220481098
 C          2.6177907749       -1.3851099314        2.3360778909
 C          3.4521795709       -0.9101294154        1.3400795526
 C          3.0384214986       -0.9950842345        0.0171192096
 C          1.8144172567       -1.5633044204       -0.2981013931
 H          1.4938107176       -1.6049708399       -1.3280818030
 N          3.8481401712       -0.4430695533       -0.9992000795
 S          4.1877948015        1.1861418620       -0.7867048833
 O          4.3365721978        1.7368741645       -2.1152467532
 O          5.3342736227        1.3199092488        0.0773335464
 C          2.7476880222        1.8614458992        0.0270171130
 C          2.8607172436        2.3678959209        1.3057067514
 C          1.7260571385        2.8442181443        1.9424061419
 C          0.5019047566        2.8028241595        1.2937782143
 C          0.4054179829        2.2954378339        0.0075447891
 C          1.5358808164        1.8163955048       -0.6335638157
 H          1.4802119086        1.4102681731       -1.6318484289
 H         -0.5478150818        2.2593627623       -0.4958265487
 H         -0.3846347830        3.1653837371        1.7898120258
 H          1.7977657485        3.2406536129        2.9422849810
 H          3.8311599709        2.3769045404        1.7744206070
 H          3.4658294650       -0.5945470468       -1.9226528514
 H          4.4059156872       -0.4599096613        1.5635026457
 H          2.9283076282       -1.3195432564        3.3674413962
 H          0.7216576654       -2.2628348223        2.8070478514
 H         -0.8773749990       -2.8977637908        1.2781214842
 C         -0.3728784647       -3.6647652716       -0.6491066295
 C          0.0562508949       -5.0241832557       -0.1875025669
 C         -1.3772706398       -4.7713072649       -0.5435155935
 H         -1.7683077898       -5.1998058906       -1.4541622877
 H         -2.0997658788       -4.7171190688        0.2577627244
 H          0.6531456345       -5.6292048487       -0.8525452642
 H          0.3056773898       -5.1413569173        0.8561771769
 H         -0.0828343038       -3.3571762448       -1.6451321558
