  62
        -98.94440652
 C          1.9430520644        1.3564755958        0.0734741943
 C          2.2195279712        0.4004297316       -0.9336941946
 C          3.5905775495       -0.1323981603       -0.9576601466
 C          4.4901501047        0.2992584122       -0.0561888661
 C          5.8972157065       -0.2068438950        0.0676579085
 C          5.9794342620       -1.3844044843        1.0491248791
 C          4.9382950862       -2.4748048161        0.7954447491
 H          3.9423174088       -2.0710144460        0.9927855061
 H          5.1124715294       -3.2671318485        1.5267534675
 C          4.9729281243       -3.0690910268       -0.6195537207
 H          4.8984073001       -4.1560698924       -0.5444746983
 H          5.9286528035       -2.8422861079       -1.0934475327
 C          3.8338257744       -2.6068338216       -1.5301154666
 H          2.8776941784       -2.7487331352       -1.0193268357
 H          3.8281013722       -3.2458595338       -2.4173471616
 C          3.9138839247       -1.1529617290       -2.0128985906
 H          3.1639413046       -1.0224367743       -2.7984353473
 H          4.8985696405       -0.9627587579       -2.4442435693
 H          5.8336160871       -1.0020928545        2.0620763336
 H          6.9808868997       -1.8144068377        0.9892863291
 H          6.2568041762       -0.5119881333       -0.9130796226
 H          6.5237081085        0.6066218009        0.4374161436
 O          4.1955882874        1.2265264449        0.8888733141
 C          2.9264510361        1.7679513808        0.9809527919
 O          2.7961304237        2.6046647015        1.8963782477
 H         -0.3632647865       -0.3796667699       -0.5662906753
 C         -0.7832220200       -0.0901052329        0.3855655049
 C         -0.3872874468        1.1065201886        0.9661329483
 C         -0.9308024261        1.4595402504        2.1954179533
 C         -1.8465113426        0.6344908095        2.8259937080
 C         -2.2386746569       -0.5574227030        2.2437504148
 C         -1.6945578326       -0.9210828915        1.0189280382
 N         -2.1028677004       -2.1259003311        0.4070330016
 S         -3.7462602167       -2.2222353153        0.0833607431
 O         -4.4491735085       -2.5597121219        1.2957426810
 O         -3.8787224173       -3.1610895667       -1.0079787171
 C         -4.1855719511       -0.5737510044       -0.4372965746
 C         -4.9029572267        0.2465162797        0.4089882323
 C         -5.1623848950        1.5497530618        0.0162651550
 C         -4.6970611201        2.0086040737       -1.2059520279
 C         -3.9783303472        1.1713152994       -2.0453857600
 C         -3.7152053780       -0.1320248778       -1.6579710326
 H         -3.1611785261       -0.8106350515       -2.2871439178
 H         -3.6170073298        1.5286202748       -2.9965466221
 H         -4.8957337168        3.0251876093       -1.5070206404
 H         -5.7209410331        2.2038269997        0.6660760997
 H         -5.2442224886       -0.1505661114        1.3507932332
 H         -1.5763923867       -2.3314028947       -0.4308919856
 H         -2.9565554774       -1.2101239553        2.7138729541
 H         -2.2595375520        0.9226057326        3.7805709888
 H         -0.6226113534        2.3841435318        2.6613685850
 C          0.5845457005        2.0174929117        0.2551693194
 H          0.7657655944        2.8843031599        0.9040681143
 C         -0.0155705480        2.5123636903       -1.0479621997
 C         -1.0670980795        3.5777618405       -1.0022181741
 C          0.3019346650        3.8968816581       -1.5223491274
 H          0.4297837495        4.0613993356       -2.5817403487
 H          0.9559741962        4.4980048989       -0.9071440166
 H         -1.3440378512        3.9651862549       -0.0337144081
 H         -1.8843738484        3.5225508232       -1.7039198855
 H         -0.1115851039        1.7394811823       -1.7984783743
 O          1.3827379439       -0.0089974776       -1.7840244312
