  62
        -98.94128120
 C          2.6174365748        1.1686778135        0.3963757645
 C          2.4237039449        0.4101012094       -0.7856556935
 C          3.1509100356       -0.8681135555       -0.8537670139
 C          3.9308358888       -1.2454121076        0.1744221217
 C          4.6734621961       -2.5466381301        0.2593779464
 C          3.8233383129       -3.6239594114        0.9475828983
 C          2.4026916491       -3.7395103212        0.3934020373
 H          1.9059365665       -4.5485148110        0.9339029837
 H          1.8506253686       -2.8229468396        0.6176290983
 C          2.3289841736       -4.0134730955       -1.1151933456
 H          1.5839883148       -4.7920844456       -1.2922478795
 H          3.2881279221       -4.3933407708       -1.4696559937
 C          1.9178230254       -2.8069687802       -1.9616723485
 H          0.9976899096       -2.3709983438       -1.5605148040
 H          1.6914896957       -3.1629487249       -2.9704997685
 C          2.9679183443       -1.6961947047       -2.0940551775
 H          3.9186892521       -2.1263131165       -2.4157944093
 H          2.6206349169       -1.0058200271       -2.8683240102
 H          4.3324573339       -4.5838822865        0.8455283400
 H          3.7564865899       -3.3857819915        2.0117315392
 H          4.9466921154       -2.8695648966       -0.7430947735
 H          5.5823335596       -2.3873166025        0.8419581278
 O          4.0858263300       -0.4960890977        1.2960235682
 C          3.4135631009        0.7065720412        1.4467500483
 O          3.5984139659        1.2590172993        2.5500594633
 H          0.2505040941        0.6760874471        1.6693592373
 C         -0.2708485921        1.2751541247        0.9306602748
 C          0.4216563284        2.2870308570        0.2759995787
 C         -0.2518506463        3.0408162537       -0.6746343760
 C         -1.5790740403        2.7745047449       -0.9646315690
 C         -2.2610182341        1.7611092173       -0.3168197552
 C         -1.5960092442        1.0002508452        0.6360263544
 N         -2.2806418339       -0.0333809472        1.3049007370
 S         -3.0094373607       -1.2161742773        0.3558986569
 O         -3.0777549551       -2.3866581756        1.2048981237
 O         -2.3339620080       -1.3789458872       -0.9099459257
 C         -4.6556598199       -0.5879081416        0.1026999517
 C         -5.1247223930       -0.3758292687       -1.1786817468
 C         -6.4096868923        0.1164980644       -1.3481226675
 C         -7.1975787602        0.3857757938       -0.2394674821
 C         -6.7123482723        0.1638235828        1.0408983033
 C         -5.4293893197       -0.3290455637        1.2171439967
 H         -5.0145934791       -0.5195583429        2.1928460914
 H         -7.3282740439        0.3738673319        1.9004272416
 H         -8.1960486825        0.7706603512       -0.3742308046
 H         -6.7887933209        0.2888482911       -2.3425970820
 H         -4.4728757253       -0.5940007018       -2.0097879099
 H         -1.7292442002       -0.4712127825        2.0295330981
 H         -3.2916816469        1.5465909767       -0.5478849364
 H         -2.0886789793        3.3622781064       -1.7128623183
 H          0.2700540774        3.8160565759       -1.2108183710
 C          1.8761485283        2.4749361809        0.6333912792
 H          1.9341071541        2.6373934078        1.7228091389
 C          2.5118356018        3.6940336754       -0.0163709180
 C          3.9881769992        3.7489195849       -0.2702679688
 C          3.0319376681        3.6815875574       -1.4210572865
 H          2.8959076999        4.5678542191       -2.0236690949
 H          2.9524503114        2.7601724034       -1.9751021201
 H          4.5689909216        2.8688759944       -0.0338682174
 H          4.5066065796        4.6770739784       -0.0820584430
 H          2.0509740854        4.6162676531        0.3240876101
 O          1.6868292606        0.7669637289       -1.7397158390
