  62
        -98.93798552
 C         -2.4313906593       -0.3829699913        0.4691996854
 C         -3.2203563916       -0.3396887534       -0.7074824096
 C         -4.3299931624        0.6263614023       -0.6916771927
 C         -4.5115238523        1.4320373413        0.3689211477
 C         -5.5779814061        2.4834815987        0.5138988178
 C         -6.9263288261        1.9407457543        1.0070660221
 C         -7.7129939839        1.1230370809       -0.0181814202
 H         -8.7207189519        0.9926708190        0.3814038051
 H         -7.8013240882        1.6918103215       -0.9443005049
 C         -7.1180141276       -0.2603291054       -0.3161730077
 H         -7.9136611938       -1.0087974183       -0.3057782767
 H         -6.4140082906       -0.5316377326        0.4740670273
 C         -6.4113643070       -0.3689814698       -1.6674828723
 H         -7.1367127621       -0.2292127742       -2.4720570123
 H         -5.9983319090       -1.3768868288       -1.7582307684
 C         -5.2653104227        0.6320826412       -1.8633132152
 H         -4.6946901523        0.3313855116       -2.7452850467
 H         -5.6638977498        1.6327691738       -2.0280343275
 H         -7.5355294148        2.7990539987        1.2996724981
 H         -6.7537667392        1.3362141577        1.9006094899
 H         -5.7175561162        2.9982211408       -0.4370766090
 H         -5.2070384928        3.2023139123        1.2476590718
 O         -3.7024552255        1.3917991307        1.4616673187
 C         -2.6689874710        0.4757684303        1.5459877734
 O         -2.0356718947        0.5190056752        2.6210800476
 O         -3.0278596025       -1.0528922649       -1.7238599115
 C         -1.2750608432       -1.3509200828        0.6600498824
 C          0.0074198964       -0.7722846191        0.1204758087
 C          0.0990091669       -0.3076609438       -1.1879571628
 C          1.2907995217        0.2058051054       -1.6659218398
 C          2.4093841640        0.2731536388       -0.8533216497
 C          2.3271404065       -0.1810397650        0.4556482759
 C          1.1303656774       -0.7017759881        0.9315319638
 H          1.0676033824       -1.0455375456        1.9557077374
 N          3.4553223395       -0.0981342454        1.2893102901
 S          4.9028582247       -0.7389114278        0.7287134020
 O          4.6723726421       -1.8259286539       -0.1941229785
 O          5.6610900434       -1.0552319308        1.9192183058
 C          5.6824159768        0.6234079595       -0.1106697088
 C          6.1046391167        0.4746129193       -1.4171731367
 C          6.7239422358        1.5431714764       -2.0468418149
 C          6.9097119129        2.7342697963       -1.3620500894
 C          6.4813079461        2.8666947040       -0.0494165792
 C          5.8627230326        1.8021331243        0.5863077789
 H          5.5185729366        1.8637988021        1.6052829629
 H          6.6271765755        3.7948278019        0.4794095901
 H          7.3913636130        3.5644788703       -1.8541093472
 H          7.0578842581        1.4422628583       -3.0670128799
 H          5.9336837882       -0.4683277403       -1.9117447553
 H          3.2809840272       -0.3848514820        2.2417745839
 H          3.3393411624        0.6735117383       -1.2228726044
 H          1.3498611245        0.5596803298       -2.6840403853
 H         -0.7714899417       -0.3610334845       -1.8239813010
 H         -1.1597040984       -1.4432392501        1.7519915958
 C         -1.5723061178       -2.7456344507        0.1244575379
 C         -0.8890495303       -3.3533413610       -1.0595352013
 C         -0.5719008040       -3.8472426372        0.3178639060
 H         -0.9237878886       -4.8228040155        0.6176251964
 H          0.3893955142       -3.5787984180        0.7317569574
 H         -1.4832711230       -3.9739369612       -1.7126104845
 H         -0.1394452628       -2.7744343224       -1.5751060543
 H         -2.6153940262       -3.0130851906        0.2606075989
