  62
        -98.93797360
 C         -2.2755895905       -0.7096682266       -0.3633962946
 C         -3.6135516995       -1.1260140225       -0.1341423352
 C         -4.4662253107       -0.2013538884        0.6232373630
 C         -3.9334809423        0.9368530778        1.1025175218
 C         -4.6945253416        1.9916412137        1.8509812963
 C         -5.2637244524        3.0500110282        0.8955254869
 C         -6.0124621510        2.4642456356       -0.3017020741
 H         -6.3934730884        3.3026392995       -0.8887987750
 H         -5.3047925106        1.9242659325       -0.9349706079
 C         -7.1731205208        1.5309491393        0.0700646165
 H         -8.0366569313        1.7824359762       -0.5492428392
 H         -7.4613052080        1.6939832142        1.1091633917
 C         -6.8864572781        0.0441321438       -0.1481671210
 H         -6.5096703821       -0.1112699049       -1.1623562176
 H         -7.8306906775       -0.5002653568       -0.0638412080
 C         -5.9004112668       -0.5965421757        0.8368221027
 H         -6.2108279149       -0.3803532736        1.8611524253
 H         -5.9374698118       -1.6797443124        0.6881335685
 H         -5.9319180662        3.7015487932        1.4615403044
 H         -4.4365590370        3.6561944167        0.5189071854
 H         -5.5005873780        1.5213448053        2.4109910034
 H         -4.0117408138        2.4753927126        2.5516160609
 O         -2.6343435364        1.2769390616        0.9158999297
 C         -1.7716791886        0.4766186548        0.1739344835
 O         -0.6212217545        0.9433218103        0.0805936802
 H          1.1093399130       -0.5827051762       -1.5136911393
 C          1.0762123545       -1.2773383371       -0.6889147517
 C         -0.1139877540       -1.9141476667       -0.3791036457
 C         -0.1463311611       -2.7760597746        0.7131894752
 C          0.9875570069       -2.9951696563        1.4721549590
 C          2.1751138264       -2.3559460748        1.1615161608
 C          2.2135612350       -1.4847703895        0.0817607889
 N          3.4143668066       -0.8298580387       -0.2517635904
 S          4.3857616945       -0.2689404597        1.0101456889
 O          5.1520567690       -1.3805931102        1.5188887805
 O          3.5980617188        0.4491328784        1.9868527072
 C          5.4602850329        0.8465854283        0.1290231376
 C          6.6312177837        0.3599887812       -0.4200694382
 C          7.4492070184        1.2263769058       -1.1278047052
 C          7.0840267470        2.5561551631       -1.2749878190
 C          5.9055508296        3.0299867099       -0.7178464190
 C          5.0822066832        2.1687339015       -0.0097882571
 H          4.1608687828        2.4955608826        0.4465654198
 H          5.6247005656        4.0647069251       -0.8317005518
 H          7.7226222977        3.2295191888       -1.8245879075
 H          8.3669491259        0.8628899447       -1.5610166025
 H          6.8764969781       -0.6785953009       -0.2719756379
 H          3.2576522478       -0.0952880659       -0.9288944527
 H          3.0633521984       -2.5054818598        1.7540077618
 H          0.9484683507       -3.6649991051        2.3183569223
 H         -1.0775799825       -3.2634688847        0.9683069998
 C         -1.3834207244       -1.6565405506       -1.1486055916
 H         -1.9553492161       -2.5980344899       -1.1826985290
 C         -1.1361922753       -1.2512960593       -2.5938671213
 C         -2.2371224868       -0.6408051028       -3.4074313949
 C         -1.0331450619        0.1734280819       -3.0455371263
 H         -0.3237895333        0.4082385734       -3.8260070040
 H         -1.1372609380        0.9497257844       -2.3041487841
 H         -3.1671427119       -0.4288888975       -2.9000523042
 H         -2.3598850989       -0.9564592789       -4.4323669695
 H         -0.4986661074       -1.9672705764       -3.1039761490
 O         -4.0736041028       -2.2245241998       -0.5452240917
