  62
        -98.94024127
 C         -2.4467366969       -0.9272614784       -0.0197583019
 C         -2.6463591727        0.4478481346        0.2512649810
 C         -4.0169237269        0.8299652608        0.6150895211
 C         -4.9750388761       -0.1109476964        0.6993021136
 C         -6.4115189536        0.1193263786        1.0837985187
 C         -7.3043964917        0.5723309263       -0.0794827997
 C         -7.0818645909        2.0108561398       -0.5478656457
 H         -7.9120475415        2.2640352381       -1.2102028197
 H         -7.1324340243        2.6828844863        0.3093143865
 C         -5.7637176444        2.2343535056       -1.3022711399
 H         -5.3625891501        1.2721842698       -1.6292415359
 H         -5.9543866097        2.8232284242       -2.2023564170
 C         -4.6902285499        2.9695266730       -0.4995067582
 H         -5.0274170562        3.9850612155       -0.2802758809
 H         -3.7895032411        3.0391498403       -1.1149094243
 C         -4.3091569995        2.2857208432        0.8201256491
 H         -3.3982876499        2.7551254694        1.1998191527
 H         -5.1035911620        2.4159291776        1.5546180335
 H         -8.3415375379        0.4765709962        0.2499327458
 H         -7.1577354158       -0.1111895379       -0.9189162064
 H         -6.4618600084        0.8521525455        1.8894840810
 H         -6.7896592958       -0.8350118710        1.4564304357
 O         -4.7335434238       -1.4275028748        0.4571497316
 C         -3.4752716022       -1.8640051392        0.0762327537
 O         -3.3984477772       -3.0919653685       -0.1339507005
 O         -1.7319651666        1.3109504034        0.1975103901
 C         -1.0734131467       -1.4238994229       -0.4310635252
 C         -0.0486549061       -1.0730470370        0.6205063544
 C         -0.3255057985       -1.3609877202        1.9549941176
 C          0.5924658316       -1.0714097534        2.9452614376
 C          1.8138044388       -0.5037992924        2.6263477829
 C          2.1007325514       -0.2139260623        1.2983617334
 C          1.1723236110       -0.4991735354        0.3060665613
 H          1.4243477666       -0.2643340908       -0.7142359251
 N          3.3208602411        0.3837625334        0.9437880851
 S          4.0345315967       -0.0454098835       -0.5242496146
 O          3.4500158392        0.7403317748       -1.5814226230
 O          3.9916301209       -1.4802908118       -0.6955717194
 C          5.7100820442        0.4927448104       -0.2331596793
 C          6.0107546116        1.8337514290       -0.3816402677
 C          7.3039694830        2.2621123051       -0.1278743858
 C          8.2694497179        1.3483142803        0.2684002007
 C          7.9532714990        0.0057237457        0.4114955998
 C          6.6613827721       -0.4293796946        0.1604145193
 H          6.3715201993       -1.4639632895        0.2502597982
 H          8.7068161022       -0.7024858850        0.7162969698
 H          9.2753873025        1.6845022683        0.4641850154
 H          7.5542560485        3.3046662109       -0.2406375156
 H          5.2299247928        2.5050185053       -0.6994849544
 H          3.9919621624        0.3872365742        1.6995964279
 H          2.5331025217       -0.2800981391        3.3995283410
 H          0.3597149713       -1.2971871774        3.9752274174
 H         -1.2765011631       -1.8134827795        2.2035661608
 H         -1.1455454569       -2.5211397422       -0.4787423946
 C         -0.7223086064       -0.9017278783       -1.8087104457
 C          0.2156789027       -1.6683834641       -2.6901873488
 C         -1.2457302398       -1.6147740658       -3.0175169689
 H         -1.5635786279       -1.0276950445       -3.8660496685
 H         -1.8402250247       -2.5014032874       -2.8502716062
 H          0.9083926990       -1.1156404484       -3.3077456110
 H          0.6202247050       -2.5927025806       -2.3051288598
 H         -0.6811220803        0.1815556691       -1.8450187290
