  62
        -98.93910445
 C         -2.6179742028       -0.2097319637       -0.4107548120
 C         -2.2208423947       -0.8266163482        0.8002626209
 C         -1.6141022871       -2.1587026930        0.6755858523
 C         -1.4895083407       -2.7133586057       -0.5434079274
 C         -0.7778736948       -4.0015312811       -0.8446395467
 C          0.7452272863       -3.7554148363       -0.8638782447
 C          1.5146945305       -4.4754240494        0.2439617306
 H          1.5912619337       -5.5360256841       -0.0069115187
 H          2.5250472818       -4.0614567147        0.2534710206
 C          0.9170084870       -4.3656877775        1.6502205736
 H          1.6973628479       -4.6667900191        2.3523679749
 H          0.1046976207       -5.0863463141        1.7592787312
 C          0.3992607672       -2.9783155654        2.0526867389
 H          0.8819384635       -2.1969235507        1.4639140489
 H          0.6638496419       -2.8040145710        3.0978476050
 C         -1.1286644391       -2.8133105649        1.9381495594
 H         -1.6179973822       -3.7832306053        2.0642168905
 H         -1.4736876926       -2.1593242279        2.7443571203
 H          1.1524969036       -4.0718468548       -1.8261009047
 H          0.9223862450       -2.6796941715       -0.7879058545
 H         -1.0371405592       -4.7507107268       -0.0997676409
 H         -1.1200243215       -4.3439554959       -1.8218178375
 O         -1.9341377161       -2.1123995877       -1.6794283226
 C         -2.4683690956       -0.8346750761       -1.6457979386
 O         -2.7767502282       -0.3742353968       -2.7666577061
 H         -0.4591691547        0.9430790643       -0.6225329156
 C         -0.7073710300        1.7959260532       -0.0073813389
 C         -2.0413129008        2.1109387711        0.2187066257
 C         -2.3340271417        3.2319530096        0.9843603848
 C         -1.3121773780        3.9984064635        1.5198346141
 C          0.0127592156        3.6575123674        1.3234230342
 C          0.3161697395        2.5327307620        0.5616486803
 N          1.6478677669        2.1152998983        0.4065118162
 S          2.0741920215        0.8545208233       -0.6144455112
 O          1.7874813771        1.1876799677       -1.9945710192
 O          1.5044090851       -0.3714434772       -0.1173241652
 C          3.8361460780        0.8488339148       -0.3461965213
 C          4.3322185808        0.1978894843        0.7674007588
 C          5.6978907975        0.2160967255        1.0017449016
 C          6.5404050016        0.8823322532        0.1240686966
 C          6.0286845248        1.5289649107       -0.9908566972
 C          4.6634308934        1.5147412650       -1.2303902526
 H          4.2210998092        1.9942960869       -2.0888448935
 H          6.6862000782        2.0428885740       -1.6733230025
 H          7.6029299481        0.8951002285        0.3086724765
 H          6.0989507253       -0.2884750304        1.8658557584
 H          3.6390515775       -0.3118952386        1.4164772747
 H          2.3281414587        2.8604776386        0.4251645065
 H          0.8058976041        4.2432725823        1.7611281007
 H         -1.5534205818        4.8697542809        2.1095965696
 H         -3.3616453693        3.5026476944        1.1649957369
 C         -3.1038136967        1.2272714761       -0.3950611893
 H         -3.2273300529        1.5199652755       -1.4493120480
 C         -4.4438606550        1.3373721643        0.3036848551
 C         -5.4522155622        2.3527276340       -0.1411268558
 C         -5.6755963069        0.8993161394       -0.4282514736
 H         -6.4424897076        0.3735985059        0.1202813918
 H         -5.5469251607        0.5501001805       -1.4428484096
 H         -5.1862884852        2.9942268559       -0.9679048542
 H         -6.0717091938        2.8253641515        0.6061373406
 H         -4.3781904274        1.1043447322        1.3600945624
 O         -2.3554388658       -0.2840687474        1.9289140516
