  62
        -98.93944477
 C         -2.3666390773       -1.2139314672       -0.0541620329
 C         -3.4429524693       -0.8512360496        0.7914957532
 C         -4.3663964645        0.1803550946        0.2897714953
 C         -4.1328148012        0.7458931438       -0.9092437719
 C         -4.9050981156        1.7907368029       -1.6876115028
 C         -6.0039960889        2.6108340545       -1.0170274782
 C         -5.5103997670        3.5926322442        0.0453588302
 H         -4.9564262409        4.3925344709       -0.4525809384
 H         -6.3816396368        4.0415460454        0.5272017873
 C         -4.5984955848        3.0019232170        1.1179070451
 H         -3.6795530102        2.6332831276        0.6566437453
 H         -4.3135108423        3.8107315358        1.7963412167
 C         -5.2154484307        1.8862038559        1.9588660111
 H         -6.1511260655        2.2337462839        2.4009445493
 H         -4.5206585281        1.6669073860        2.7739622184
 C         -5.4849884005        0.5676986708        1.2139716284
 H         -6.4306883635        0.6017272241        0.6786986704
 H         -5.5570203835       -0.2307051183        1.9581449824
 H         -6.7658651473        1.9546536587       -0.6068287442
 H         -6.4820432114        3.1948724136       -1.8081738978
 H         -4.1520026301        2.4699114643       -2.1003410047
 H         -5.3407767749        1.2607094521       -2.5418788985
 O         -3.0726462173        0.3726969184       -1.6845375544
 C         -2.1677579100       -0.5984872417       -1.2882922421
 O         -1.2631561039       -0.8131782438       -2.1189930633
 O         -3.6334759536       -1.3770145577        1.9202052752
 C         -1.3888750599       -2.2665863738        0.4426272032
 C         -0.0779875515       -1.5803484463        0.7352741007
 C          0.0850580008       -0.9139715284        1.9469620178
 C          1.2444636896       -0.2115815271        2.2155302946
 C          2.2615528876       -0.1488997474        1.2783401902
 C          2.1007315370       -0.7948982773        0.0606820278
 C          0.9452792352       -1.5208975918       -0.1975512281
 H          0.8292082407       -2.0067209142       -1.1533765814
 N          3.1213873131       -0.7247298585       -0.9039304251
 S          3.7765546447        0.7828700871       -1.2464346103
 O          2.8312853807        1.8501406896       -1.0114103822
 O          4.3024076083        0.6715913790       -2.5899127742
 C          5.1401806399        0.9124097771       -0.1062331819
 C          5.2748253649        2.0391675294        0.6810126850
 C          6.3493566841        2.1237795538        1.5530090476
 C          7.2659659066        1.0859525087        1.6212781901
 C          7.1183367380       -0.0377354467        0.8216611487
 C          6.0473735590       -0.1278980948       -0.0529382897
 H          5.8974555609       -0.9821771345       -0.6915814143
 H          7.8328949160       -0.8430332081        0.8778524826
 H          8.0999976961        1.1532627258        2.3018212482
 H          6.4652912476        2.9970044115        2.1747674190
 H          4.5331377563        2.8179208760        0.5991480302
 H          2.8919314510       -1.2093556995       -1.7602312949
 H          3.1629790628        0.4083022022        1.4746669476
 H          1.3583223527        0.2965102565        3.1610720162
 H         -0.7188910239       -0.9424952478        2.6692037005
 H         -1.8071661089       -2.6245976124        1.3927914988
 C         -1.2733381133       -3.4370723875       -0.5105112319
 C         -0.6336624258       -4.7065548264       -0.0357611688
 C         -2.1117636606       -4.6563399746       -0.2759968039
 H         -2.5144332998       -5.1755817428       -1.1327870756
 H         -2.7699567440       -4.6525017561        0.5803165410
 H         -0.0190266881       -5.2643269969       -0.7255907992
 H         -0.2868229793       -4.7350503870        0.9859868632
 H         -1.1133971402       -3.1407258905       -1.5400987774
