  62
        -98.93785293
 C         -1.9218133244       -1.3804871525        0.1227013283
 C         -2.2134756065       -0.3813868615       -0.8356668034
 C         -3.5901668812        0.1466574960       -0.8354028214
 C         -4.4859320023       -0.3219535294        0.0489350563
 C         -5.9408921116        0.0443596034        0.2012154676
 C         -6.3135503142        1.5304562239        0.1079435246
 C         -5.2511699243        2.5022098528        0.6421526675
 H         -5.7235226640        3.1949461202        1.3412063739
 H         -4.4855832212        1.9547548428        1.1949701866
 C         -4.5889288058        3.3297369636       -0.4622250221
 H         -5.3602820096        3.6663905583       -1.1583973137
 H         -4.1426951352        4.2207314727       -0.0136295370
 C         -3.4863375107        2.6167643245       -1.2438453833
 H         -2.6123053107        2.4761494654       -0.6016227584
 H         -3.1788862241        3.2706352608       -2.0637692806
 C         -3.8681007814        1.2441820441       -1.8224617360
 H         -4.9024403306        1.2319260670       -2.1567207851
 H         -3.2219954614        1.0502652575       -2.6827926509
 H         -6.5393953055        1.7862134269       -0.9264052800
 H         -7.2392664522        1.6585871674        0.6714641921
 H         -6.5116533185       -0.5145005534       -0.5462272051
 H         -6.2288698521       -0.3439023499        1.1811628039
 O         -4.1645225676       -1.2834562624        0.9589205383
 C         -2.8961917900       -1.8279684422        1.0209576773
 O         -2.7589483192       -2.6979305513        1.9039846985
 H          0.3414392123        0.4042134324       -0.4380520239
 C          0.7948695914        0.0585096019        0.4791109425
 C          0.4254953515       -1.1753724291        0.9956133723
 C          1.0159459757       -1.6029050840        2.1786856230
 C          1.9520983168       -0.8146010965        2.8260469023
 C          2.3176665943        0.4146177746        2.3075696555
 C          1.7260001287        0.8529793646        1.1301926645
 N          2.1060308928        2.0975820462        0.5819515248
 S          3.7307583598        2.2127273036        0.1790339330
 O          4.4998075608        2.4456487886        1.3756465544
 O          3.8130835695        3.2374447724       -0.8372534125
 C          4.1261192131        0.6108660720       -0.4983699590
 C          4.8484265764       -0.2929974292        0.2533971775
 C          5.0737567731       -1.5602639634       -0.2595056058
 C          4.5701276221       -1.9010226900       -1.5049408677
 C          3.8456757888       -0.9813888184       -2.2477570928
 C          3.6166144954        0.2866099775       -1.7399794076
 H          3.0598457244        1.0275723941       -2.2915630649
 H          3.4534323405       -1.2476161860       -3.2164137061
 H          4.7441431003       -2.8895247169       -1.9002814864
 H          5.6358487782       -2.2784960834        0.3150804180
 H          5.2207274269        0.0133026173        1.2170556197
 H          1.5407723246        2.3567250819       -0.2149303236
 H          3.0517932220        1.0391632206        2.7906948214
 H          2.4024268281       -1.1612345670        3.7435930464
 H          0.7297647941       -2.5575935791        2.5954089297
 C         -0.5620253358       -2.0486863444        0.2594019497
 H         -0.7370176479       -2.9438037877        0.8706487853
 C          0.0225056097       -2.4837661114       -1.0721929223
 C          1.0748947750       -3.5491026627       -1.0881359579
 C         -0.2999676984       -3.8450398865       -1.6065674987
 H         -0.4398708942       -3.9604665930       -2.6708933266
 H         -0.9465081712       -4.4747287942       -1.0123455289
 H          1.3635331150       -3.9808460825       -0.1420519824
 H          1.8837404004       -3.4596233237       -1.7960107853
 H          0.1104150831       -1.6761400319       -1.7862991911
 O         -1.3854766603        0.0669395350       -1.6744036690
