  62
        -98.93646937
 C         -2.7626310355       -0.3064984089        0.4653663283
 C         -2.3326420503        0.2872293930       -0.7447490979
 C         -2.2591790385        1.7600599091       -0.7619649288
 C         -2.6488512792        2.4560419496        0.3229970332
 C         -2.7491532024        3.9479979955        0.5660817839
 C         -2.0236754842        4.9375908493       -0.3420572556
 C         -0.4985898827        4.8735628457       -0.2689833721
 H         -0.1809422939        5.2429386839        0.7093466291
 H         -0.0913092638        5.5452345065       -1.0275173446
 C          0.1105130944        3.4862279634       -0.4579689248
 H         -0.2063142676        2.8307372500        0.3563261312
 H          1.1975409051        3.5809452166       -0.3868135706
 C         -0.1986816049        2.8033312288       -1.7892609681
 H          0.4242306335        1.9053356620       -1.8448866480
 H          0.0897279679        3.4593138979       -2.6133570290
 C         -1.6628580159        2.3741540277       -1.9946279287
 H         -1.6796289685        1.5971282078       -2.7646439868
 H         -2.2727250071        3.2014233237       -2.3512514854
 H         -2.3280436573        5.9366663600       -0.0185838966
 H         -2.3591726629        4.8226130216       -1.3683927313
 H         -2.4217186803        4.1033413487        1.5988305988
 H         -3.8195829626        4.1805016690        0.5436537978
 O         -3.1072827627        1.8353641324        1.4507613979
 C         -3.1393387862        0.4565919679        1.5669611752
 O         -3.5127869899        0.0417048049        2.6832881293
 O         -2.0241203029       -0.3795130021       -1.7670892480
 C         -2.7928678069       -1.8173425889        0.5983977121
 C         -1.4489701854       -2.4017392137        0.2319725329
 C         -1.3089885133       -3.5910355414       -0.4718507481
 C         -0.0524945684       -4.0679116552       -0.8042566989
 C          1.0894243050       -3.3747595737       -0.4472541962
 C          0.9606863240       -2.1895802787        0.2642834615
 C         -0.2972934323       -1.7246700773        0.6120322849
 H         -0.3891668387       -0.7976100383        1.1667677882
 N          2.1219254601       -1.4635159189        0.6300376095
 S          2.9497612940       -0.7656686128       -0.6737280073
 O          2.1639544187        0.2978290071       -1.2596272280
 O          3.3697364531       -1.8173222233       -1.5631359371
 C          4.3642508348       -0.0813009174        0.1671439700
 C          5.3959141477       -0.9276704661        0.5244934870
 C          6.4865514793       -0.4045864796        1.2004168041
 C          6.5262455996        0.9476510276        1.5069506682
 C          5.4827702235        1.7845936781        1.1418538005
 C          4.3884598798        1.2668260291        0.4667837313
 H          3.5574864483        1.8800580366        0.1554181943
 H          5.5165318430        2.8357795475        1.3792748976
 H          7.3769218131        1.3530035433        2.0316502554
 H          7.3008722131       -1.0510725024        1.4850615330
 H          5.3249814089       -1.9688040976        0.2573812955
 H          1.8842147693       -0.7109311164        1.2652720918
 H          2.0699687924       -3.7195884862       -0.7304640961
 H          0.0382339234       -4.9901547340       -1.3580605618
 H         -2.1865709562       -4.1398738908       -0.7728189192
 H         -2.9851838550       -2.0280714942        1.6612178136
 C         -3.9320549993       -2.3868574282       -0.2234192703
 C         -4.6618479031       -3.6135025459        0.2330439260
 C         -5.3284415449       -2.2737622706        0.3077083200
 H         -6.1272108111       -2.0524571392       -0.3841132403
 H         -5.4505259760       -1.8130507825        1.2774030701
 H         -5.0079792045       -4.3142905209       -0.5117768938
 H         -4.3433654517       -4.0709104301        1.1575463934
 H         -3.7867587632       -2.2397514362       -1.2878543161
