  62
        -98.94414409
 C         -2.2022883292       -1.3855968205       -0.0938578394
 C         -2.5357864392       -0.3417975511       -0.9910458900
 C         -3.8731963493        0.2417919688       -0.8199084506
 C         -4.7035934894       -0.2395201408        0.1220532395
 C         -6.1024361395        0.2391039392        0.4005032889
 C         -6.1688874999        1.4632652197        1.3239714282
 C         -5.7191843000        2.7807090894        0.6909453376
 H         -6.2534744698        2.9330731188       -0.2473854126
 H         -6.0192466202        3.5812071097        1.3700726471
 C         -4.2068797499        2.8830450995        0.4468665678
 H         -3.8470708801        3.8561214197        0.7890352973
 H         -3.6883004299        2.1261113699        1.0402495483
 C         -3.7890805396        2.7355693887       -1.0163907320
 H         -4.1915933096        3.5681064583       -1.5979002126
 H         -2.6980631196        2.7860605589       -1.0664831618
 C         -4.2344928693        1.4213413683       -1.6712101614
 H         -3.7097090391        1.3182542978       -2.6241475912
 H         -5.3070909592        1.4407370280       -1.8626363916
 H         -7.2076156000        1.5747167897        1.6433364780
 H         -5.5672346200        1.2630742903        2.2136059585
 H         -6.6080503394        0.4626529086       -0.5392320813
 H         -6.6229956095       -0.5881118906        0.8877864493
 O         -4.3566966894       -1.2643293103        0.9449365401
 C         -3.0971339693       -1.8347550501        0.8812676007
 O         -2.8986746593       -2.7300211096        1.7267559312
 O         -1.7746284390        0.0876249585       -1.8971172101
 C         -0.8308275391       -2.0443177503       -0.1076525787
 C          0.1713170707       -1.0448483299        0.4172816509
 C          0.3846631904       -0.9493460891        1.7895368409
 C          1.2499665201       -0.0026387786        2.3059163205
 C          1.9174701002        0.8717302910        1.4660700502
 C          1.7114397705        0.7833929202        0.0955836202
 C          0.8554513307       -0.1800048702       -0.4232326294
 H          0.6879824109       -0.2232015909       -1.4874637894
 N          2.3766597705        1.6706959798       -0.7637618302
 S          3.9866499404        2.0113807902       -0.4831985701
 O          4.1030167100        2.9980072308        0.5623770094
 O          4.5245537306        2.3913365396       -1.7706583802
 C          4.7020652805        0.4701547506        0.0620787010
 C          4.6304745408       -0.6169450699       -0.7864882984
 C          5.1560064810       -1.8285904096       -0.3688982476
 C          5.7400129607       -1.9327266588        0.8844789325
 C          5.8081722004       -0.8311966983        1.7228755719
 C          5.2832421903        0.3832650014        1.3105012411
 H          5.3130518900        1.2641441818        1.9310418006
 H          6.2643944102       -0.9145254677        2.6961400321
 H          6.1449724508       -2.8785637085        1.2080715731
 H          5.1053990312       -2.6867070399       -1.0196250072
 H          4.1742663410       -0.5022212005       -1.7565597986
 H          2.1781034707        1.5278576792       -1.7423382801
 H          2.5778357700        1.6310110313        1.8525346199
 H          1.4032364599        0.0604580520        3.3725113705
 H         -0.1519908296       -1.6182375888        2.4478931712
 H         -0.8904347691       -2.8722011399        0.6107991717
 C         -0.4766421287       -2.6082721710       -1.4679888383
 C          0.6626785515       -3.5747516809       -1.5814218876
 C         -0.7470066384       -4.0541274312       -1.7508595976
 H         -1.0844530982       -4.3305734418       -2.7386370075
 H         -1.1859649085       -4.6450752009       -0.9601671873
 H          1.2956171716       -3.5264708613       -2.4541741775
 H          1.1810781713       -3.8401444503       -0.6725989973
 H         -0.6351042287       -1.9113711415       -2.2807189088
