  62
        -98.93969809
 C          2.6847587725        0.8150512611        0.3668016072
 C          2.6800132656       -0.3085508783        1.2287116587
 C          3.3676556794       -1.5039775998        0.7305932538
 C          3.9502054507       -1.4805966854       -0.4822054826
 C          4.7091234773       -2.6117151350       -1.1214308754
 C          3.8175064476       -3.6280912738       -1.8479464674
 C          2.9980485719       -4.5423224797       -0.9363447997
 H          2.5913864817       -5.3381103026       -1.5634514606
 H          3.6579524848       -5.0094591868       -0.2046540959
 C          1.8383191714       -3.8420675975       -0.2142352405
 H          1.6224495198       -2.8915504846       -0.7083251157
 H          0.9375685310       -4.4548428774       -0.2934344487
 C          2.0818512334       -3.5845997859        1.2730371744
 H          1.2140866801       -3.0562812730        1.6763188352
 H          2.1702786064       -4.5371619562        1.7999780285
 C          3.3294762881       -2.7431885930        1.5734988490
 H          4.2300066821       -3.3367278199        1.4183667364
 H          3.2901559281       -2.4327163284        2.6204845167
 H          3.1472657695       -3.0865902932       -2.5196872113
 H          4.4697746824       -4.2529728002       -2.4623006715
 H          5.3083365501       -3.1236069906       -0.3679654563
 H          5.3819306636       -2.1593747132       -1.8531091872
 O          3.9263913194       -0.3838678466       -1.2841103945
 C          3.2712409333        0.7777757964       -0.8987749684
 O          3.2951311566        1.6813217634       -1.7548174719
 O          2.1243195617       -0.3125016961        2.3609490412
 C          1.9646305367        2.0749853272        0.8175003053
 C          0.7191996456        2.2445434269       -0.0187656120
 C          0.5137790510        3.3007978420       -0.8948095429
 C         -0.6452753972        3.3647096990       -1.6502267600
 C         -1.6183161306        2.3884074391       -1.5469628101
 C         -1.4281700306        1.3323929712       -0.6636181279
 C         -0.2682767752        1.2719530891        0.0935140497
 H         -0.1145806942        0.4504470605        0.7823906318
 N         -2.4053048428        0.3232145102       -0.5551852904
 S         -4.0153261297        0.8291635852       -0.4488487873
 O         -4.4847341713        1.1363056106       -1.7766070393
 O         -4.1392101852        1.8912685125        0.5246255513
 C         -4.8082737177       -0.6531012131        0.1408252552
 C         -5.1031979436       -1.6532915662       -0.7662468500
 C         -5.7054489647       -2.8145777142       -0.3091748855
 C         -6.0006848805       -2.9556835546        1.0388384823
 C         -5.6992300070       -1.9427946604        1.9367316221
 C         -5.0952579356       -0.7791927817        1.4866312208
 H         -4.8511264396        0.0375089152        2.1471254351
 H         -5.9325189612       -2.0540466085        2.9834246525
 H         -6.4718731818       -3.8594052439        1.3917452378
 H         -5.9436102596       -3.6036777816       -1.0040456308
 H         -4.8649680414       -1.4953679377       -1.8051073169
 H         -2.1880248358       -0.3280105171        0.1875026870
 H         -2.5244769973        2.4328863077       -2.1291977846
 H         -0.7923019209        4.1883938454       -2.3327596566
 H          1.2631012881        4.0682004900       -0.9955407229
 H          1.6490043551        1.8726030601        1.8513803203
 C          2.8805840599        3.2785300583        0.8171651995
 C          2.5219833638        4.4803565049        1.6375510176
 C          3.6606525060        3.6005029255        2.0551632445
 H          4.6681196589        3.9728973587        1.9460788380
 H          3.5235597538        2.9583615611        2.9129845372
 H          2.7473176687        5.4598688770        1.2441725219
 H          1.6086923638        4.4367675522        2.2117035319
 H          3.3717201550        3.4374598284       -0.1353251734
