  62
        -98.93760238
 C         -2.3462479745       -0.6747289230       -0.3176949902
 C         -3.6659635537       -1.1788661411       -0.1797322947
 C         -4.6222722996       -0.3202573909        0.5301525227
 C         -4.1958393421        0.8445460341        1.0503657399
 C         -5.0709221751        1.8407960820        1.7531251384
 C         -5.6462959101        2.8685514515        0.7682641855
 C         -6.2760607181        2.2468867478       -0.4783973016
 H         -6.6719606266        3.0646937681       -1.0843847984
 H         -5.4950006953        1.7603810388       -1.0672352664
 C         -7.3952475442        1.2369059610       -0.1888839912
 H         -7.7607435902        1.3711404330        0.8298025382
 H         -8.2309088019        1.4378306964       -0.8624910764
 C         -6.9984064702       -0.2259842681       -0.3954777413
 H         -6.5472239930       -0.3473210260       -1.3836047947
 H         -7.9084227131       -0.8313861175       -0.3755694007
 C         -6.0382685786       -0.8096403196        0.6485938179
 H         -6.4274442598       -0.6226817755        1.6514894521
 H         -5.9945594638       -1.8915815604        0.4927908819
 H         -6.3913177821        3.4691162062        1.2933030638
 H         -4.8386147690        3.5316993445        0.4495862539
 H         -5.8785261626        1.3138504168        2.2578249857
 H         -4.4677328166        2.3621289328        2.4984060375
 O         -2.9109820455        1.2682034100        0.9534656881
 C         -1.9529333078        0.5311479671        0.2654009600
 O         -0.8268235152        1.0626788289        0.2572892875
 H          1.1373822429       -0.4207150621       -1.3926337353
 C          1.0895652682       -1.0736375141       -0.5347733447
 C         -0.0988307119       -1.7166184249       -0.2313533066
 C         -0.1502613615       -2.5216995429        0.9029139440
 C          0.9629287398       -2.6791270765        1.7055149829
 C          2.1517714470       -2.0412752410        1.3954359174
 C          2.2097371319       -1.2241226725        0.2748608671
 N          3.4145282276       -0.5837748031       -0.0827055152
 S          4.3324022743        0.2377263175        1.0699893239
 O          4.7490841563       -0.6915335224        2.0895058209
 O          3.6427160027        1.4226825981        1.5331811648
 C          5.7323551730        0.6939260470        0.0655401480
 C          6.7178883155       -0.2482997391       -0.1585427389
 C          7.7950998131        0.0873278459       -0.9628425201
 C          7.8681210665        1.3520988343       -1.5275665343
 C          6.8720469660        2.2877000468       -1.2923998446
 C          5.7913625758        1.9577290777       -0.4893494596
 H          4.9985249563        2.6559935226       -0.2724808678
 H          6.9325020100        3.2711353931       -1.7302501825
 H          8.7075988602        1.6115771708       -2.1531199518
 H          8.5727340684       -0.6363755808       -1.1465953308
 H          6.6224279176       -1.2149978049        0.3072489423
 H          3.2725336973        0.0352908374       -0.8708375530
 H          3.0210844257       -2.1501922595        2.0221185929
 H          0.9090952511       -3.3057067181        2.5834545673
 H         -1.0801601973       -3.0147874088        1.1526636477
 C         -1.3464678897       -1.5453966827       -1.0591718363
 H         -1.8436573246       -2.5271856276       -1.1250552996
 C         -1.0655752136       -1.1109017360       -2.4896512730
 C         -2.1528761695       -0.5142422574       -3.3311039227
 C         -0.9853856761        0.3248106603       -2.9107916793
 H         -0.2561940634        0.5950761559       -3.6611020893
 H         -1.1357015852        1.0823290881       -2.1577280564
 H         -2.2291379266       -0.8134881612       -4.3654772160
 H         -3.1064411525       -0.3360091816       -2.8555304757
 H         -0.3920878788       -1.8000096927       -2.9905439166
 O         -4.0265211986       -2.2988024135       -0.6301209274
