  62
        -98.94057813
 C          2.2814679695        1.0495437401        0.3785631500
 C          2.5607174596        0.1152245699       -0.6492516797
 C          3.5226719497       -0.9428182799       -0.3052596694
 C          4.0211062698       -1.0251528795        0.9404703506
 C          4.9871390199       -2.0622792092        1.4451832509
 C          6.4577773699       -1.7436310791        1.1418092008
 C          6.8712109498       -1.9070785795       -0.3214163292
 H          7.9617718398       -1.8657557094       -0.3521430492
 H          6.5729068599       -2.8950511897       -0.6735897189
 C          6.3102334597       -0.8317717699       -1.2623787795
 H          5.9661866696        0.0224399702       -0.6745620798
 H          7.1060772296       -0.4698684700       -1.9172241596
 C          5.1673958497       -1.3077545903       -2.1592845493
 H          5.5346431398       -2.0746350205       -2.8448277191
 H          4.8235658396       -0.4591877505       -2.7562310596
 C          3.9601420298       -1.8713180202       -1.3981969191
 H          4.1967245599       -2.8540939701       -0.9908561188
 H          3.1290189798       -1.9748591005       -2.1002660491
 H          7.0680297500       -2.4179917189        1.7469391510
 H          6.6678136598       -0.7224623190        1.4683159805
 H          4.8596461499       -2.1029772789        2.5291366409
 H          4.7304881200       -3.0370080094        1.0290978912
 O          3.6735384297       -0.1504978792        1.9216107804
 C          2.8287866096        0.9141161806        1.6583174401
 O          2.6409747595        1.6674941009        2.6346815598
 O          2.0465797196        0.1387880595       -1.7977424797
 C          1.3793057094        2.2593917800        0.1860915897
 C         -0.0681586506        1.8998685699        0.4016530198
 C         -0.8514768806        2.5988056601        1.3121726797
 C         -2.1771014506        2.2534612900        1.5098942098
 C         -2.7482813805        1.2109229997        0.8022806101
 C         -1.9710282304        0.4994305395       -0.1025039597
 C         -0.6416442905        0.8461280296       -0.2970068898
 H         -0.0397843304        0.2930727095       -1.0034515897
 N         -2.5414351503       -0.5538569708       -0.8374904093
 S         -3.4462719202       -1.7020927506       -0.0144762290
 O         -3.0081057601       -1.8422102902        1.3555030011
 O         -3.3873779501       -2.8928772009       -0.8337936386
 C         -5.1016220903       -1.0464278808       -0.0657700391
 C         -5.6241450203       -0.6946017813       -1.2950651692
 C         -6.9133595304       -0.1902438914       -1.3545066293
 C         -7.6554312004       -0.0498567112       -0.1910898293
 C         -7.1180143303       -0.4110596907        1.0347887908
 C         -5.8283221602       -0.9154432606        1.1013286909
 H         -5.3668160802       -1.2032700402        2.0326570009
 H         -7.6962821803       -0.3014692005        1.9381540507
 H         -8.6584036304        0.3436883487       -0.2400214094
 H         -7.3343986104        0.0919060782       -2.3060482694
 H         -5.0156098103       -0.8211083315       -2.1748924192
 H         -1.8939638203       -0.9924322809       -1.4769521892
 H         -3.7798491704        0.9375698296        0.9526799302
 H         -2.7735416406        2.8030248401        2.2219951696
 H         -0.4095478807        3.4059667003        1.8779632194
 H          1.6672840593        2.9565156603        0.9886140295
 C          1.6300204893        2.9699938796       -1.1387518205
 C          0.6399810392        3.0261852991       -2.2594471505
 C          0.9124877691        4.2517674194       -1.4438875909
 H          1.4672956390        5.0631053294       -1.8899949512
 H          0.1485394291        4.5663008696       -0.7487900510
 H          1.0254270992        2.9725182689       -3.2662813805
 H         -0.3090396307        2.5304517091       -2.1315974203
 H          2.6750387893        2.9194987196       -1.4283010905
