  62
        -98.94381218
 C         -2.1084994696       -0.8181731506       -0.0574524085
 C         -2.5482768397        0.5266645293       -0.0929420905
 C         -3.8621757498        0.7844161700        0.5150158190
 C         -4.5433478697       -0.2335875392        1.0722111404
 C         -5.9081101698       -0.1194586985        1.6860061201
 C         -7.0086393997       -0.3947838901        0.6520633203
 C         -6.8417116096        0.3888546880       -0.6497230808
 H         -5.9417512495        0.0412294374       -1.1620908002
 H         -7.6916448295        0.1418983770       -1.2895721705
 C         -6.7636951798        1.9111467783       -0.4681532830
 H         -7.4009794898        2.3864696271       -1.2168609137
 H         -7.1542925999        2.1883250597        0.5116380666
 C         -5.3614785399        2.4988119382       -0.6389227537
 H         -5.4547894900        3.5858418281       -0.7099974453
 H         -4.9285489097        2.1462242069       -1.5784934331
 C         -4.3689482999        2.1990424599        0.4917186069
 H         -4.8150412801        2.4650329313        1.4523461464
 H         -3.4876970900        2.8288294798        0.3367999760
 H         -7.9733124898       -0.1545933796        1.1027512099
 H         -7.0009427095       -1.4608357305        0.4135164819
 H         -5.9857053698       -0.8536121473        2.4897657011
 H         -6.0296623800        0.8774348321        2.1052685686
 O         -4.0788883996       -1.5088654191        1.1017262223
 C         -2.8574354495       -1.8344000798        0.5357377729
 O         -2.5499239594       -3.0398756497        0.6290032347
 O         -1.8810008597        1.4636352686       -0.6043234418
 C         -0.7674676894       -1.1932410213       -0.6626656878
 C          0.3344964304       -0.4089344403        0.0072357512
 C          0.4184283102       -0.4278295582        1.3972507112
 C          1.4073168901        0.2753431828        2.0572217303
 C          2.3417914701        1.0081337919        1.3462347193
 C          2.2775920602        1.0202808999       -0.0399383007
 C          1.2841793004        0.3084502088       -0.7020705898
 H          1.2475667505        0.3354060073       -1.7797015098
 N          3.2352552002        1.7436708089       -0.7682681517
 S          4.8372971102        1.6240977998       -0.3056173113
 O          5.0916994500        2.4982641514        0.8120958175
 O          5.5978507903        1.8957435581       -1.5050949016
 C          5.0472380003       -0.0756817295        0.1972266412
 C          4.8047995705       -1.0658611308       -0.7344743074
 C          4.9303541407       -2.3912086303       -0.3520911055
 C          5.2934094805       -2.7030129383        0.9493808250
 C          5.5384273703       -1.6977272470        1.8714419936
 C          5.4129021402       -0.3700487575        1.4946417217
 H          5.5915050801        0.4419771835        2.1806081505
 H          5.8222920903       -1.9431841355        2.8821435440
 H          5.3864226606       -3.7360753579        1.2452242165
 H          4.7419200808       -3.1755609013       -1.0675348644
 H          4.5304732106       -0.7913404723       -1.7402381578
 H          3.1272006504        1.6862630475       -1.7698237116
 H          3.1089285300        1.5780077227        1.8447066686
 H          1.4509886500        0.2573778244        3.1356540903
 H         -0.3128030798       -0.9979860975        1.9543055719
 H         -0.6170473694       -2.2566786510       -0.4269686663
 C         -0.8086252193       -1.0301691635       -2.1677319881
 C          0.0868089009       -1.8580645647       -3.0389639368
 C         -1.3854379191       -2.1351232448       -2.9985173465
 H         -1.9848264290       -1.8752727961       -3.8582608470
 H         -1.7285792790       -3.0180589141       -2.4790100953
 H          0.4969116509       -1.4116029760       -3.9326089974
 H          0.7459444409       -2.5605263739       -2.5519759857
 H         -1.0252935494       -0.0121839640       -2.4716933796
