  62
        -98.94488470
 C          1.9225923263        0.4226186410       -0.0226040497
 C          2.9631499885        0.5604146188        0.9354689075
 C          4.1173204030       -0.3295206913        0.7799273614
 C          4.1319256157       -1.2303430396       -0.2186859541
 C          5.2241111028       -2.2258362841       -0.5005975282
 C          6.3894552432       -1.6576017405       -1.3222715489
 C          7.3073429024       -0.6933617808       -0.5696942235
 H          7.6339238603       -1.1570558148        0.3616649875
 H          8.1945291587       -0.5472352120       -1.1891035088
 C          6.6812841173        0.6766588660       -0.2736321804
 H          5.8062369036        0.8226043056       -0.9111329459
 H          7.3948257984        1.4646685776       -0.5247089492
 C          6.2711121233        0.8851103275        1.1842115674
 H          5.8074115482        1.8708519069        1.2721333846
 H          7.1589381617        0.8728327779        1.8202880878
 C          5.2758281239       -0.1550394106        1.7147698281
 H          5.7786844166       -1.1079951916        1.8785552554
 H          4.8819511533        0.2019300206        2.6694559698
 H          5.9837809466       -1.1598991900       -2.2061665158
 H          6.9895564539       -2.5040844571       -1.6641207538
 H          4.7656212862       -3.0381447485       -1.0688603445
 H          5.6025792667       -2.6301281887        0.4387628634
 O          3.1080110178       -1.3507148828       -1.1017423455
 C          1.9912805758       -0.5283758257       -1.0404705802
 O          1.1607572534       -0.7639904791       -1.9425529769
 O          2.9270768754        1.3961888432        1.8767802865
 C          0.7388684222        1.3641397020        0.1257186757
 C         -0.4347827769        0.6814469806        0.7866230644
 C         -0.9011823379        1.1057912722        2.0251109144
 C         -1.9904389087        0.4909262023        2.6183923615
 C         -2.6371481502       -0.5561805873        1.9877045388
 C         -2.1760538897       -0.9883934000        0.7504986079
 C         -1.0885312337       -0.3671828882        0.1548402637
 H         -0.7303878707       -0.7141192520       -0.8029423266
 N         -2.8378540796       -2.0441308419        0.0948479963
 S         -4.4954148758       -1.8733393467       -0.0835564842
 O         -5.1531047153       -2.2843402128        1.1321564458
 O         -4.8394884627       -2.6241324833       -1.2704496751
 C         -4.7418254475       -0.1253381928       -0.3430436516
 C         -4.1887983563        0.4449848491       -1.4725430989
 C         -4.3146967686        1.8109373234       -1.6630522516
 C         -4.9836917876        2.5804389942       -0.7235307378
 C         -5.5371918074        1.9919896682        0.4026263346
 C         -5.4143133954        0.6257207121        0.5989766282
 H         -5.8260182890        0.1279322581        1.4615887209
 H         -6.0586459418        2.5926894361        1.1301918727
 H         -5.0735153329        3.6449211299       -0.8720024072
 H         -3.8867827215        2.2689370282       -2.5403903969
 H         -3.6756253652       -0.1813709053       -2.1849870761
 H         -2.4060937024       -2.2981551088       -0.7821441689
 H         -3.4857808852       -1.0502064531        2.4327208839
 H         -2.3396956341        0.8302850545        3.5814196520
 H         -0.3945907008        1.9157001425        2.5291073684
 H          1.0888240587        2.1528530029        0.8049712253
 C          0.3139382219        2.0090191603       -1.1800587678
 C         -0.5060487433        3.2620295684       -1.1361072644
 C          0.9226789651        3.3163041835       -1.5854762420
 H          1.1320413513        3.4840115307       -2.6314015392
 H          1.6514654422        3.7562874085       -0.9203260853
 H         -1.2818383567        3.3946465098       -1.8737681755
 H         -0.7481901540        3.6663708311       -0.1653068419
 H          0.1040138586        1.2947454914       -1.9652103063
