  62
        -98.94152730
 C         -2.8184661946       -0.7615830264       -0.1610955756
 C         -2.3542612288        0.1840846948       -1.1079273861
 C         -2.7288238734        1.5841881347       -0.8580681942
 C         -3.4993970135        1.8889809954        0.2006535300
 C         -3.9071121088        3.2765693443        0.5999772483
 C         -2.9063975305        3.8845817587        1.5924010537
 C         -1.4461585474        3.7623921336        1.1548381849
 H         -0.8361906336        4.2596729025        1.9125441772
 H         -1.1517349852        2.7093976285        1.1564052852
 C         -1.1416093763        4.3673008288       -0.2225337963
 H         -1.9359253682        5.0586089864       -0.5080450750
 H         -0.2162135842        4.9425931959       -0.1520642404
 C         -0.9373635020        3.3377247060       -1.3356442682
 H         -0.2050277521        2.5925605854       -1.0102675279
 H         -0.5114426327        3.8550651215       -2.1999602725
 C         -2.2045411659        2.6169276607       -1.8154970852
 H         -2.9770467598        3.3520319732       -2.0508924463
 H         -1.9526151336        2.0766425973       -2.7326457944
 H         -3.1567079975        4.9376104136        1.7333966414
 H         -3.0178111635        3.3762214134        2.5529568400
 H         -3.9771095924        3.8995331473       -0.2894169173
 H         -4.8882572748        3.2227037786        1.0747640214
 O         -3.9638400043        0.9516828495        1.0652592710
 C         -3.6127189808       -0.3785459996        0.9251673540
 O         -4.0755417822       -1.1228205863        1.8128324721
 H         -0.1123368980       -1.3120024418       -1.1914648375
 C          0.0292886172       -1.8457866326       -0.2631473879
 C         -1.0664473112       -2.4130100304        0.3720597116
 C         -0.8630960743       -3.0735801199        1.5778606333
 C          0.4020445424       -3.1544178197        2.1344100530
 C          1.4868511579       -2.5662554238        1.5085543938
 C          1.2909831603       -1.9020444037        0.3062433065
 N          2.3870282760       -1.2488056408       -0.3147332541
 S          2.8012778716        0.2221916323        0.4175694776
 O          2.6896863721        0.0769326129        1.8471018528
 O          2.0445711917        1.3008915881       -0.1823925429
 C          4.5173992494        0.3532945402       -0.0449212868
 C          5.4279940661       -0.4578891030        0.6039579562
 C          6.7614560916       -0.3992920321        0.2332246430
 C          7.1596528082        0.4640583644       -0.7769251127
 C          6.2338811617        1.2719603873       -1.4189507926
 C          4.8977378492        1.2167009528       -1.0529471486
 H          4.1442435598        1.8294512251       -1.5213659486
 H          6.5459968707        1.9431691609       -2.2028798093
 H          8.1981854874        0.5081428349       -1.0648068530
 H          7.4843612441       -1.0254805017        0.7308107470
 H          5.0736269314       -1.1077681509        1.3867115623
 H          2.1753992022       -1.0395325313       -1.2830629029
 H          2.4696012981       -2.5934231370        1.9491237587
 H          0.5414791849       -3.6695255885        3.0728194525
 H         -1.7111827923       -3.5028287493        2.0918859632
 C         -2.4527147146       -2.2398558033       -0.2020908756
 H         -3.1607050618       -2.7407042178        0.4714053132
 C         -2.5775316929       -2.8626877400       -1.5779317250
 C         -2.7019501364       -4.3515942382       -1.6878664293
 C         -3.8811890820       -3.4763918637       -1.9866961947
 H         -4.2008459707       -3.3690951153       -3.0122710859
 H         -4.6912971712       -3.4494569141       -1.2722789601
 H         -2.2098937074       -4.8495635754       -2.5090572982
 H         -2.7137271882       -4.9209261245       -0.7707476953
 H         -2.0129296405       -2.3447016562       -2.3412713842
 O         -1.6590873350       -0.0979951800       -2.1217799100
