  62
        -98.94338372
 C          1.8912914857        0.6546331718       -0.7443072014
 C          2.2235288123        0.1091626889        0.5193013117
 C          3.6537559915        0.1167500002        0.8604117433
 C          4.5369846104        0.6431186152       -0.0076797569
 C          6.0241288819        0.6715887435        0.1926899913
 C          6.6899337160       -0.5754550446       -0.4056664905
 C          6.0250701746       -1.8884104637        0.0077153542
 H          6.5967346225       -2.6996453504       -0.4482624911
 H          5.0188040871       -1.9267055753       -0.4155772405
 C          5.9448461088       -2.1088462133        1.5247887191
 H          6.6508064956       -1.4506480154        2.0325325642
 H          6.2435253773       -3.1358343981        1.7454227008
 C          4.5498688871       -1.9125545439        2.1214665278
 H          4.5598078469       -2.3012996537        3.1432033709
 H          3.8232002030       -2.4998128815        1.5547075943
 C          4.0502109706       -0.4638281709        2.1886913855
 H          4.8011840191        0.1621623533        2.6750022572
 H          3.1436720621       -0.4521491144        2.8009214975
 H          7.7387962908       -0.5850152611       -0.1035161083
 H          6.6507930778       -0.4996286763       -1.4948137901
 H          6.2408912423        0.7368854348        1.2571503353
 H          6.4210549754        1.5582232071       -0.3047038223
 O          4.1756426726        1.1764326644       -1.2033339444
 C          2.8496345076        1.1891853285       -1.6042723125
 O          2.6543151769        1.7026180218       -2.7252224478
 O          1.3729284255       -0.3573443354        1.3203310935
 C          0.4429776432        0.6797218174       -1.1948974687
 C         -0.4121995436        1.4418535390       -0.2112397798
 C          0.0748713925        2.6208694138        0.3471316393
 C         -0.6853426104        3.3456857642        1.2435364648
 C         -1.9581647811        2.9239681685        1.5854692216
 C         -2.4621162426        1.7594851693        1.0209600863
 C         -1.6882234988        1.0233814326        0.1334979973
 H         -2.0982289138        0.1228932438       -0.2923492185
 N         -3.7451501773        1.3009869468        1.3519345060
 S         -4.7291107484        0.6321967971        0.1770113356
 O         -4.5043433602        1.2348837299       -1.1160496744
 O         -6.0692951017        0.7597540725        0.7101762675
 C         -4.2956835701       -1.0940462532        0.1376321936
 C         -4.3416928566       -1.7645579373       -1.0685668419
 C         -4.0555765834       -3.1208419526       -1.0944685597
 C         -3.7296297046       -3.7793994064        0.0809319836
 C         -3.6898092952       -3.0916116358        1.2843883901
 C         -3.9795284401       -1.7369495805        1.3179717324
 H         -3.9541699809       -1.1730434107        2.2353247342
 H         -3.4326227862       -3.6063331833        2.1961626517
 H         -3.5041867157       -4.8339949127        0.0586186003
 H         -4.0864647972       -3.6567249015       -2.0300560581
 H         -4.5879343967       -1.2109378742       -1.9607655092
 H         -4.2636674376        1.8972300164        1.9802101862
 H         -2.5552238007        3.4912103310        2.2833424637
 H         -0.2876271243        4.2521108275        1.6749715890
 H          1.0652400193        2.9590675116        0.0731362164
 H          0.4283771925        1.2299432142       -2.1480084150
 C         -0.0424037416       -0.7343854147       -1.4421579702
 C         -1.0755719207       -1.0130144153       -2.4906758339
 C          0.3491977061       -1.4184208246       -2.7162944966
 H          0.5982142178       -2.4683276836       -2.6836306574
 H          0.9399521256       -0.8505590087       -3.4207552816
 H         -1.8031933055       -1.7873765879       -2.2998908451
 H         -1.4628184765       -0.1733077129       -3.0485435965
 H         -0.0586367431       -1.3303411448       -0.5366666817
