  62
        -98.94312875
 C         -1.8255036618       -0.8550775338        0.6985441813
 C         -2.8075125065       -1.2026570781       -0.2615035589
 C         -4.1382390527       -0.6066108731       -0.0628895135
 C         -4.3552558157        0.2018141754        0.9892693837
 C         -5.6421399389        0.9206368909        1.2708248875
 C         -5.6534521521        2.3128241058        0.6239793131
 C         -5.2410405525        2.3142856536       -0.8482109277
 H         -5.3167816932        3.3437094230       -1.2053463652
 H         -4.1899184935        2.0256370740       -0.9241098192
 C         -6.0848883621        1.3981232409       -1.7455441207
 H         -6.3367273583        1.9399529524       -2.6596219593
 H         -7.0227441596        1.1526049429       -1.2459713235
 C         -5.3838837744        0.1068808788       -2.1714621685
 H         -5.9747109008       -0.3532376413       -2.9678994444
 H         -4.4012927088        0.3438061511       -2.5871956456
 C         -5.2001559288       -0.9457014894       -1.0711336517
 H         -6.1553479617       -1.1325674462       -0.5766526601
 H         -4.8728275341       -1.8728267949       -1.5502930016
 H         -4.9612236030        2.9553084987        1.1734933679
 H         -6.6566742295        2.7313473092        0.7233495296
 H         -6.4736237210        0.3273051963        0.8954343011
 H         -5.7449470636        1.0312070982        2.3516911049
 O         -3.3952964633        0.4954922030        1.9036071692
 C         -2.1146436656       -0.0134421029        1.7767793252
 O         -1.3341153330        0.3419335895        2.6838339282
 H          1.2908362423        0.7077117673        0.9917520630
 C          1.1904132398        0.4547826141       -0.0536790015
 C          0.3603004359       -0.5899444668       -0.4382048437
 C          0.2242608669       -0.8712751271       -1.7939509912
 C          0.9013149835       -0.1183686287       -2.7355596444
 C          1.7400523037        0.9117350492       -2.3480027713
 C          1.8817628660        1.2026786966       -0.9967372156
 N          2.7260466329        2.2448925686       -0.5714010620
 S          3.8484244975        1.9249096838        0.6283061494
 O          3.1963762762        1.7931642468        1.9053772182
 O          4.8195038728        2.9907790882        0.5118434038
 C          4.5800699391        0.3751346203        0.1350207391
 C          5.5326327217        0.3933567976       -0.8653441999
 C          6.0582805282       -0.8072103525       -1.3135118102
 C          5.6178259945       -2.0007343637       -0.7619149849
 C          4.6631475865       -2.0023061965        0.2430210844
 C          4.1353851030       -0.8038512670        0.6975139770
 H          3.3946484375       -0.7610179354        1.4799244791
 H          4.3249115457       -2.9320710669        0.6721958006
 H          6.0222586986       -2.9364403532       -1.1139749833
 H          6.8051150207       -0.8094802418       -2.0909170031
 H          5.8549228966        1.3437145400       -1.2590514647
 H          3.1605158197        2.7531196484       -1.3287285983
 H          2.2722797785        1.4952343726       -3.0840135196
 H          0.7799891480       -0.3407638528       -3.7847633366
 H         -0.4426368202       -1.6590187997       -2.1047427271
 C         -0.3913967120       -1.3594913791        0.6220354506
 H          0.0574883608       -1.1095438640        1.5931054261
 C         -0.3029446801       -2.8594656956        0.4256481441
 C          0.9681904927       -3.5615910706        0.7923042677
 C         -0.2602619767       -3.7488993183        1.6300054581
 H         -0.7767762783       -4.6961175669        1.5887866364
 H         -0.2939894651       -3.2769970724        2.6018224789
 H          1.3009149095       -4.3821219379        0.1758694276
 H          1.7660612932       -2.9587821119        1.1988725223
 H         -0.8529946143       -3.2196975709       -0.4327875592
 O         -2.6087382705       -1.9714220026       -1.2374604733
