  62
        -98.94952470
 C         -1.6514881710       -0.7792239403       -0.7045578414
 C         -1.5295077410       -1.5664638828        0.4655226920
 C         -0.5628317765       -2.6724935505        0.3957229749
 C          0.1581448976       -2.8495562253       -0.7257377471
 C          1.1719975054       -3.9372701636       -0.9358636479
 C          2.5875978398       -3.5001138298       -0.5375847177
 C          2.6784918086       -2.8608855491        0.8482041730
 H          3.7333915235       -2.6490917057        1.0405546093
 H          2.1607050478       -1.8988715748        0.8511529738
 C          2.1147050258       -3.7207201284        1.9873411363
 H          2.0503712267       -4.7641500975        1.6746783497
 H          2.8065539523       -3.6751075100        2.8311185289
 C          0.7519139888       -3.2541060092        2.5038244925
 H          0.7827189811       -2.1742947357        2.6751780535
 H          0.5674049000       -3.7370698068        3.4676185229
 C         -0.4468135979       -3.5654178507        1.5981888155
 H         -0.4194477767       -4.6161737530        1.2992708119
 H         -1.3567320465       -3.3974267793        2.1821355074
 H          3.2380000936       -4.3765344613       -0.5747196487
 H          2.9523087713       -2.7785944537       -1.2726932478
 H          0.8771887898       -4.8095435932       -0.3551961765
 H          1.1703178814       -4.2016323651       -1.9951515072
 O          0.0509625178       -2.0391948597       -1.8107170223
 C         -0.8480831715       -0.9834365442       -1.8248491847
 O         -0.8379209753       -0.3136672314       -2.8774004960
 H         -0.2064598662        1.3070718003       -0.2575668772
 C         -0.9173296161        1.7315112699        0.4364104124
 C         -2.2561931619        1.3768558329        0.3321124400
 C         -3.1643151815        1.9465090955        1.2142117405
 C         -2.7276705950        2.8207306565        2.1952763264
 C         -1.3862428062        3.1288025958        2.3282966010
 C         -0.4716482489        2.5739686270        1.4398768821
 N          0.8994583906        2.8585823429        1.5261922429
 S          2.0031215810        1.6511009574        1.1637883578
 O          1.5074773216        0.3419361448        1.5147007804
 O          3.2190580672        2.0680410480        1.8324053191
 C          2.2454668476        1.7905747468       -0.5934335204
 C          2.2383304596        0.6542573228       -1.3760912930
 C          2.4427126940        0.7744055003       -2.7409415048
 C          2.6553212862        2.0263243232       -3.2960018269
 C          2.6687828462        3.1589772452       -2.4956440839
 C          2.4633668832        3.0439663288       -1.1304718461
 H          2.4640352712        3.9000985147       -0.4767406995
 H          2.8342638339        4.1303495919       -2.9332022614
 H          2.8077348715        2.1170024668       -4.3598963459
 H          2.4160725902       -0.1071034476       -3.3613846603
 H          2.0528875462       -0.3009465861       -0.9099010444
 H          1.1763390218        3.3968069371        2.3343103446
 H         -1.0456718508        3.7870010585        3.1130916138
 H         -3.4413863623        3.2533056124        2.8800566735
 H         -4.2102972275        1.6970126029        1.1440284622
 C         -2.6286900588        0.3835378692       -0.7415493342
 H         -2.4876149486        0.8678103684       -1.7191985591
 C         -4.0549423009       -0.1143919614       -0.6424526317
 C         -5.1716455838        0.6674750553       -1.2647119191
 C         -4.7297224736       -0.6260233488       -1.8784048564
 H         -5.3756250166       -1.4870429154       -1.7944242898
 H         -4.1667629475       -0.5911389933       -2.7999128557
 H         -4.9163735576        1.5829286535       -1.7765134145
 H         -6.1261243951        0.6935774298       -0.7609807533
 H         -4.2488771840       -0.6377561627        0.2866634492
 O         -2.2108223086       -1.3744099054        1.5067989256
