  62
        -98.93596800
 C          2.5315009411        0.2411512153        0.5779631666
 C          2.2221323853       -0.3936882419       -0.6498481159
 C          2.0042039463       -1.8520458237       -0.5997508941
 C          2.0254761983       -2.4848518578        0.5844767829
 C          1.8659161062       -3.9552333911        0.8866358299
 C          0.8297491687       -4.7488210462        0.0835342148
 C         -0.4552403715       -3.9808485967       -0.2588879449
 H         -1.3176379763       -4.5750955159        0.0499208032
 H         -0.4963632155       -3.0379482569        0.2913093654
 C         -0.5913863955       -3.6851284170       -1.7537082350
 H         -0.2891853665       -4.5680585533       -2.3222373868
 H         -1.6430644503       -3.4912338525       -1.9763113513
 C          0.2031095171       -2.4732002924       -2.2349094248
 H          0.0748398649       -2.3878335112       -3.3170225762
 H         -0.2121656119       -1.5684205052       -1.7834647386
 C          1.7075763530       -2.5086525787       -1.9179235621
 H          2.0955613532       -3.5243252742       -1.9556119140
 H          2.2246552155       -1.9104199405       -2.6733109545
 H          0.5804263433       -5.6283079939        0.6802036585
 H          1.2835379057       -5.1125112588       -0.8373456844
 H          2.8457283988       -4.4297946343        0.7723179975
 H          1.6127819156       -3.9970889123        1.9492980683
 O          2.2584647106       -1.8209676005        1.7549855075
 C          2.5017332204       -0.4603092507        1.7829507350
 O          2.6767496312        0.0028877083        2.9303561031
 H          0.1681984294        1.3918634170        1.1324742607
 C          0.3157998213        2.0838256576        0.3137551422
 C          1.6080073114        2.4228624183       -0.0682677119
 C          1.7789559244        3.3219899421       -1.1113092445
 C          0.6766992515        3.8391211702       -1.7709137254
 C         -0.6056072210        3.4579400847       -1.4224255279
 C         -0.7857471162        2.5669090126       -0.3695199304
 N         -2.0702441603        2.1537226566        0.0264225473
 S         -2.2294676330        0.5806096549        0.6249922454
 O         -1.9715641818        0.6038020151        2.0450944114
 O         -1.4436141430       -0.3441240917       -0.1560927425
 C         -3.9683188525        0.3034269455        0.3426305482
 C         -4.3665095306       -0.4542687656       -0.7420856678
 C         -5.7213770439       -0.6389321962       -0.9698456001
 C         -6.6493220439       -0.0623532202       -0.1157387516
 C         -6.2342822477        0.6952970974        0.9696693990
 C         -4.8813376690        0.8820069345        1.2042245991
 H         -4.5102702595        1.4531723578        2.0392384105
 H         -6.9586184094        1.1393022993        1.6332016685
 H         -7.7028633474       -0.2068295449       -0.2954723197
 H         -6.0461995958       -1.2303737875       -1.8105768912
 H         -3.6069448730       -0.8860143595       -1.3743390556
 H         -2.7819650040        2.3685220566       -0.6587177737
 H         -1.4602662608        3.8388542888       -1.9605916662
 H          0.8207631866        4.5313678349       -2.5867218430
 H          2.7725082982        3.5922631604       -1.4293561873
 C          2.7339960094        1.7458191806        0.6735872983
 H          2.6122030360        1.9752275525        1.7461875377
 C          4.1179450348        2.2372688312        0.2809580711
 C          5.3155477528        1.3458581073        0.4172494326
 C          4.8333753128        1.7507713304       -0.9417497962
 H          5.4254688467        2.4602245615       -1.5013923160
 H          4.3325129816        1.0178910759       -1.5531208817
 H          6.2341789436        1.7736722725        0.7899069860
 H          5.1434363155        0.3289333742        0.7401614513
 H          4.2644271390        3.2794387937        0.5487357290
 O          2.1539061791        0.2094758821       -1.7513551016
