  62
        -98.94463541
 C         -1.6819314393       -1.4785941706       -0.2254493465
 C         -1.5637292119       -0.2602029063       -0.9387774503
 C         -2.8205933205        0.4672833422       -1.1776167939
 C         -3.9806867865       -0.0438054944       -0.7291748589
 C         -5.3174698156        0.6285772975       -0.8414577603
 C         -5.6038988573        1.4968437283        0.3918141648
 C         -4.4543632263        2.4303982255        0.7729566819
 H         -4.7811190612        3.0120762013        1.6378078613
 H         -3.5970916159        1.8338712735        1.0949072085
 C         -4.0127570287        3.3842835617       -0.3457707846
 H         -4.7944037530        3.4530369101       -1.1035193427
 H         -3.8814555088        4.3826245952        0.0770281604
 C         -2.6900013924        3.0093422775       -1.0172661376
 H         -1.9174959740        2.8569793663       -0.2577672380
 H         -2.3722466984        3.8539371187       -1.6351609596
 C         -2.7303170670        1.7703468946       -1.9205514750
 H         -3.5485286088        1.8640496548       -2.6376526986
 H         -1.7877927781        1.7367374656       -2.4746396337
 H         -6.5027449800        2.0853219068        0.1991470691
 H         -5.8036479898        0.8382187346        1.2401778514
 H         -5.3375753031        1.2395904132       -1.7416221520
 H         -6.0857871166       -0.1425297598       -0.9181414395
 O         -4.0581353321       -1.2254895032       -0.0661222072
 C         -2.9179681221       -1.9566299914        0.2181366113
 O         -3.1323194004       -3.0074587021        0.8558401188
 H          1.7132170764       -0.6354905211        0.1591717294
 C          1.3126872019       -0.7981036269        1.1437185708
 C          0.2175754327       -1.6298751591        1.3162720384
 C         -0.2907844308       -1.8114743031        2.6003326833
 C          0.2886985707       -1.1778035404        3.6826062359
 C          1.3766823498       -0.3403296377        3.5045304211
 C          1.8856122100       -0.1442408709        2.2267572743
 N          2.9975176058        0.6859662247        2.0126072458
 S          2.9419394309        1.8176951789        0.7681264364
 O          3.9311963592        2.8057862517        1.1516356564
 O          1.6016037825        2.3135625566        0.5696088157
 C          3.5481606487        0.9367312667       -0.6541673681
 C          2.7255606586        0.7011270329       -1.7373698704
 C          3.2380883352        0.0029590680       -2.8207666318
 C          4.5515412796       -0.4397304820       -2.8036138816
 C          5.3646849696       -0.1890751350       -1.7081943345
 C          4.8604540039        0.5063427920       -0.6216636185
 H          5.4581795152        0.7292527994        0.2462565652
 H          6.3856267861       -0.5353031214       -1.6981234707
 H          4.9419354096       -0.9842529686       -3.6491233600
 H          2.6018949729       -0.1956328687       -3.6689645810
 H          1.6995477142        1.0345977799       -1.7069356591
 H          3.3704514737        1.1039812668        2.8533582253
 H          1.8268456222        0.1610667772        4.3483820846
 H         -0.1124322686       -1.3305524732        4.6734617606
 H         -1.1533174252       -2.4498774879        2.7336817972
 C         -0.4660141269       -2.3123120300        0.1546777375
 H         -0.8654225158       -3.2680732127        0.5209406179
 C          0.4539417053       -2.5865550890       -1.0159347706
 C          1.5225879280       -3.6270351859       -0.8733230752
 C          0.3378008395       -3.8847350447       -1.7539204197
 H          0.4785643634       -3.8817559290       -2.8242596508
 H         -0.4076738698       -4.5894206052       -1.4146426378
 H          2.4805349743       -3.4470181457       -1.3365546326
 H          1.5794213339       -4.1561407208        0.0660272013
 H          0.6827524651       -1.7064007776       -1.6017541729
 O         -0.4790320338        0.2053324632       -1.3729472352
