  62
        -98.93919479
 C         -2.6294903317       -0.9266414314        0.4533940209
 C         -2.6650937933        0.2476618703        1.2453737039
 C         -3.5766294229        1.3064434485        0.7950031931
 C         -4.2962086573        1.1188277715       -0.3265642641
 C         -5.2326297189        2.1279830816       -0.9242104995
 C         -4.5135742373        3.0199052954       -1.9456481281
 C         -3.2001417524        3.6097922742       -1.4322168833
 H         -2.4830446084        2.8001063270       -1.2769407869
 H         -2.7981855164        4.2459625916       -2.2237282350
 C         -3.3337540655        4.4251553687       -0.1383389593
 H         -2.7616187005        5.3489342797       -0.2466188073
 H         -4.3760378302        4.7062281391        0.0162564683
 C         -2.8083371668        3.7197612419        1.1133858629
 H         -2.7448921057        4.4575420429        1.9176507055
 H         -1.7967575495        3.3501245776        0.9272573459
 C         -3.6603284102        2.5533900293        1.6301293094
 H         -3.2818689206        2.2779048905        2.6188237057
 H         -4.6981059866        2.8752204774        1.7376539138
 H         -5.1891561003        3.8269009883       -2.2351426183
 H         -4.2962359092        2.4228430187       -2.8343362648
 H         -5.6568021517        2.7373763939       -0.1285297503
 H         -6.0385837938        1.5915158264       -1.4277293658
 O         -4.2151397316       -0.0083470012       -1.0765830473
 C         -3.3731899476       -1.0530566737       -0.7205798221
 O         -3.3920910300       -2.0102819207       -1.5159724561
 O         -1.9677368894        0.4009394263        2.2851045859
 C         -1.7074967432       -2.0536375929        0.8902915912
 C         -0.5190223531       -2.0940083517       -0.0392443675
 C         -0.3677547817       -3.0371325327       -1.0466994060
 C          0.7331900161       -2.9907658007       -1.8850221363
 C          1.7010475988       -2.0147148423       -1.7359409813
 C          1.5624743087       -1.0697719596       -0.7266122817
 C          0.4593746513       -1.1181636010        0.1130023813
 H          0.3425854866       -0.3804187591        0.8970174874
 N          2.5377084090       -0.0659508846       -0.5715574453
 S          4.1526735648       -0.5581793846       -0.6688786499
 O          4.5262792139       -0.6166208460       -2.0600692516
 O          4.3459334396       -1.7751830545        0.0872165372
 C          4.9874043213        0.8030706618        0.1213979227
 C          5.3288236459        0.7009118095        1.4566293712
 C          5.9675763873        1.7679632894        2.0685148400
 C          6.2494213473        2.9135100817        1.3395239481
 C          5.8994355841        3.0014053608        0.0002049108
 C          5.2619630102        1.9377119988       -0.6183100733
 H          4.9815291056        1.9567097517       -1.6584891325
 H          6.1227396742        3.8929567170       -0.5632252461
 H          6.7479343697        3.7417438526        1.8178850532
 H          6.2433547089        1.7013768199        3.1086484806
 H          5.0991330759       -0.2125464966        1.9816520530
 H          2.3772349578        0.4908198939        0.2570432075
 H          2.5652319917       -1.9762127768       -2.3796159422
 H          0.8394124466       -3.7272389041       -2.6675493793
 H         -1.1185834344       -3.7971727133       -1.1851410838
 H         -1.3434218370       -1.7566314906        1.8839029913
 C         -2.4341968376       -3.3746362599        1.0181211152
 C         -1.7927098953       -4.4905435020        1.7856082491
 C         -2.9837300999       -3.7792180653        2.3518859558
 H         -3.9294060810       -4.2991750113        2.3821317298
 H         -2.8299357380       -3.1052708744        3.1820182248
 H         -1.9183905400       -5.5012445780        1.4287277972
 H         -0.8270770155       -4.2985205672        2.2288127312
 H         -3.0199884760       -3.6295079040        0.1438728529
