  62
        -98.93058768
 C         -2.3789968401       -0.1288270880        0.4937244107
 C         -3.6097418200        0.0452922842        1.1727861502
 C         -4.7845519201        0.3873016216        0.3524220192
 C         -4.6341113801        0.5520575075       -0.9747490414
 C         -5.6285583401        0.9343050041       -2.0512058225
 C         -7.1297560801        0.8967409650       -1.7767458623
 C         -7.7066586002       -0.5021915343       -1.5610477279
 H         -8.7553033902       -0.3984900333       -1.2739778582
 H         -7.6737047402       -1.0413380273       -2.5111666262
 C         -6.9895442002       -1.3593858410       -0.5210104052
 H         -5.9647053502       -1.5495267921       -0.8466780747
 H         -7.4974684602       -2.3266797009       -0.4772318122
 C         -6.9627366001       -0.7847781566        0.8939661830
 H         -6.5670946301       -1.5592397145        1.5568515054
 H         -7.9800163200       -0.5567039455        1.2177836023
 C         -6.0948100900        0.4716122240        1.0811252490
 H         -6.6350241400        1.3719029831        0.7982830062
 H         -5.8488983700        0.5574738173        2.1436871487
 H         -7.6171997202        1.3212946623       -2.6586591936
 H         -7.3759402801        1.5442521577       -0.9403219044
 H         -5.4046453302        0.2878395114       -2.9057972405
 H         -5.3576292101        1.9510591431       -2.3567002357
 O         -3.4163741101        0.4279132155       -1.5781127810
 C         -2.2668930001        0.0864495777       -0.8792609300
 O         -1.2499781502        0.0129786754       -1.5926548098
 O         -3.7239743100       -0.0717946019        2.4224873306
 C         -1.1615144000       -0.4870080254        1.3262982318
 C         -0.0087231700        0.4209582034        0.9786068289
 C         -0.1514512700        1.7875918142        1.2053797246
 C          0.8695851501        2.6663772732        0.9014927618
 C          2.0592516300        2.2023259614        0.3683700832
 C          2.2151805800        0.8420655107        0.1438298074
 C          1.1878267699       -0.0412128483        0.4557167003
 H          1.3163205699       -1.0936949389        0.2559690636
 N          3.4166512299        0.3668495489       -0.4108428511
 S          4.8535423600        1.0188766708        0.1905506568
 O          4.7944146000        1.0995664153        1.6331443165
 O          5.1195001700        2.2581033086       -0.4966669271
 C          6.0358654999       -0.2152631408       -0.3147405994
 C          6.5094000998       -0.1914928749       -1.6129532295
 C          7.4137266798       -1.1623120462       -2.0130635765
 C          7.8268812698       -2.1347502534       -1.1143361135
 C          7.3434507398       -2.1449594793        0.1853938166
 C          6.4376861799       -1.1777986480        0.5919344836
 H          6.0431439199       -1.1407643748        1.5947214335
 H          7.6689231699       -2.9002840871        0.8824844390
 H          8.5325919398       -2.8876850144       -1.4280083011
 H          7.7938776697       -1.1566477094       -3.0218662365
 H          6.1679771198        0.5885591930       -2.2732333919
 H          3.4505807899       -0.6425113612       -0.4476004080
 H          2.8666964600        2.8751089907        0.1272974110
 H          0.7411616301        3.7238471737        1.0797011884
 H         -1.0820490699        2.1533187555        1.6188303935
 H         -1.4664161500       -0.2563155622        2.3611210910
 C         -0.8020140401       -1.9650469955        1.3061171164
 C         -1.8553413301       -3.0090705861        1.0894616397
 C         -0.8029286202       -2.7801521695        0.0485775289
 H         -0.0366736202       -3.5319434299       -0.0747536787
 H         -1.0804943402       -2.2848718223       -0.8684253626
 H         -1.8118871801       -3.9127565843        1.6786219526
 H         -2.8600996101       -2.6694255768        0.8842421187
 H         -0.0364910701       -2.2022694432        2.0391738771
