  62
        -98.95135942
 C         -2.3399108404       -0.0623777514        0.1136834482
 C         -1.6102748421        0.4964918546       -0.9619707972
 C         -1.4318490318        1.9528455823       -0.9264016849
 C         -1.8702815161        2.6505348751        0.1370876301
 C         -1.7654523592        4.1395787030        0.3259858670
 C         -0.4006380539        4.6031796822        0.8529479731
 C          0.7296510066        4.5967296185       -0.1767157714
 H          0.4033252143        5.1197679034       -1.0768108599
 H          1.5551266233        5.1677895070        0.2530766283
 C          1.2434827523        3.1986825777       -0.5478381483
 H          0.9498705111        2.4805033626        0.2218128068
 H          2.3368696829        3.2073129979       -0.5640658228
 C          0.7784794867        2.6918372262       -1.9122232662
 H          1.1898124422        1.6909386823       -2.0551025424
 H          1.1804772103        3.3374617674       -2.6968726018
 C         -0.7438050182        2.6148416171       -2.0839292064
 H         -1.1521715768        3.6150013911       -2.2321601355
 H         -0.9541456593        2.0167285676       -2.9743887642
 H         -0.1200483333        3.9726740572        1.7005744408
 H         -0.5226346503        5.6245222192        1.2219227973
 H         -2.5294424999        4.4132823952        1.0570395638
 H         -1.9859797889        4.6472513413       -0.6138126167
 O         -2.5009993570        2.0649476158        1.1897394695
 C         -2.7549094233        0.7042743401        1.2015687478
 O         -3.3560213026        0.3005198571        2.2199690121
 O         -1.1419040194       -0.1833440659       -1.9130660793
 C         -2.6176362241       -1.5557115885        0.1530220267
 C         -1.3112790868       -2.3111815848        0.1927777910
 C         -1.0343044655       -3.4250603761       -0.5897148461
 C          0.2005778383       -4.0465698977       -0.5101566801
 C          1.1890764188       -3.5586533694        0.3253801803
 C          0.9178568699       -2.4489002003        1.1174857346
 C         -0.3335050215       -1.8575325772        1.0687627964
 H         -0.5340987851       -1.0000275988        1.6944889494
 N          1.8965904346       -1.8829736709        1.9618560844
 S          2.3516755505       -0.3037613529        1.6239450554
 O          3.4280154284       -0.0175552612        2.5479614525
 O          1.2055622158        0.5647871106        1.6917524873
 C          3.0053063027       -0.3882225321       -0.0340556064
 C          4.3767602525       -0.3745540144       -0.2045686821
 C          4.8985111809       -0.5185906794       -1.4795767409
 C          4.0438441567       -0.6888498784       -2.5586933701
 C          2.6710601304       -0.7073153963       -2.3703437289
 C          2.1407193571       -0.5543126366       -1.0977087226
 H          1.0739407501       -0.5564782437       -0.9372405423
 H          1.9956472433       -0.8377009055       -3.2010326192
 H          4.4479213255       -0.8071222716       -3.5516438301
 H          5.9663514360       -0.5019408285       -1.6269723088
 H          5.0005582250       -0.2437610624        0.6649310942
 H          2.7268407812       -2.4518950617        2.0599080789
 H          2.1612337218       -4.0264059403        0.3649703129
 H          0.4025650185       -4.9113694858       -1.1233321414
 H         -1.7829520595       -3.8028558401       -1.2664786426
 H         -3.1442639333       -1.7394835510        1.1014055179
 C         -3.5180549062       -1.9598356386       -0.9954412547
 C         -4.4421020400       -3.1308601623       -0.8532237033
 C         -4.9941807189       -1.7379717754       -0.8682653229
 H         -5.5432782704       -1.4073219356       -1.7369803201
 H         -5.3532671715       -1.3174314564        0.0601868375
 H         -4.6175133544       -3.7578814411       -1.7143215359
 H         -4.4363106606       -3.6615099996        0.0869424769
 H         -3.0666142824       -1.7754656463       -1.9632119240
