  62
        -98.94487083
 C          2.6488632868        0.3098439825       -0.0130112841
 C          2.4448821372        1.4209360934       -0.8642511266
 C          1.7769559846        2.5770411372       -0.2592391014
 C          1.4066415823        2.5309852906        1.0337223750
 C          0.6695167009        3.6094545872        1.7794988411
 C         -0.8503883521        3.5539598458        1.5662125086
 C         -1.3327414463        4.0631808681        0.2064616700
 H         -2.4118671633        4.2104049749        0.2853286422
 H         -0.8846158263        5.0363407759        0.0012743274
 C         -1.0497445721        3.1039576018       -0.9584864787
 H         -1.9395251315        3.0247983007       -1.5889078082
 H         -0.8476620278        2.1070981875       -0.5571730474
 C          0.1034449502        3.5291964912       -1.8683429617
 H         -0.1606290321        4.4561594194       -2.3827691819
 H          0.2472698273        2.7535424902       -2.6252853513
 C          1.4411688807        3.7378388207       -1.1474582885
 H          2.2272300789        3.8150313164       -1.9030203207
 H          1.4180802217        4.6616896050       -0.5703816490
 H         -1.3137166209        4.1621546428        2.3468047053
 H         -1.1795556148        2.5201852145        1.7038887625
 H          1.0488832153        4.5904109460        1.4911401131
 H          0.8758893364        3.4520479291        2.8402149928
 O          1.6727529390        1.4664871873        1.8350483260
 C          2.2449580203        0.3135977302        1.3233934023
 O          2.3606839225       -0.6135793462        2.1486994390
 O          2.7834070023        1.4350077369       -2.0799068382
 C          3.1687295475       -0.9879667007       -0.6099256800
 C          2.0645317897       -2.0100635608       -0.4823462069
 C          2.2278254045       -3.2806805089        0.0517777989
 C          1.1327720522       -4.1066912257        0.2483786122
 C         -0.1450862004       -3.6827291053       -0.0691689385
 C         -0.3111147603       -2.4272657025       -0.6346921596
 C          0.7857448273       -1.6158394219       -0.8575505244
 H          0.6392233169       -0.6295017092       -1.2822815279
 N         -1.6269416801       -1.9416656201       -0.8956743257
 S         -2.1918181309       -1.1486318763        0.4977478169
 O         -1.4354369904        0.0634952900        0.7273303192
 O         -2.2138946628       -2.1102637757        1.5701115061
 C         -3.8595758429       -0.7436058628        0.0133242550
 C         -4.7761977609       -1.7723502624       -0.0898278469
 C         -6.0675212874       -1.4792536720       -0.4972662675
 C         -6.4180284375       -0.1701857510       -0.7940786245
 C         -5.4869076893        0.8511724426       -0.6848771264
 C         -4.1925311686        0.5643508842       -0.2791880024
 H         -3.4360394333        1.3260518917       -0.1760834601
 H         -5.7618664932        1.8681894918       -0.9139157663
 H         -7.4239486847        0.0558358540       -1.1108239709
 H         -6.7949512472       -2.2702654121       -0.5823786507
 H         -4.4584240253       -2.7712599247        0.1579538634
 H         -1.6053062239       -1.2447039138       -1.6318455227
 H         -1.0099824523       -4.2932908836        0.1310166500
 H          1.2761159881       -5.0852139809        0.6810446113
 H          3.2106053126       -3.6156246802        0.3416217929
 H          3.3356801156       -0.7771058433       -1.6767643629
 C          4.4763731850       -1.4146160412        0.0177873256
 C          5.4353655960       -2.2710252341       -0.7529787124
 C          5.7544451546       -0.8290753723       -0.5008489421
 H          6.5332504548       -0.5865682087        0.2062472713
 H          5.6824871982       -0.1355431076       -1.3258683989
 H          5.9999644083       -3.0203829159       -0.2192978115
 H          5.1534790197       -2.5595576193       -1.7542274529
 H          4.3923962743       -1.5686994891        1.0875750762
