  62
        -98.93858728
 C         -1.7663972632       -0.8672059244        0.2890140422
 C         -1.9894504691        0.4867366728       -0.0735632711
 C         -3.3184778045        0.8128938208       -0.6041886597
 C         -4.2271479364       -0.1696915356       -0.7394437401
 C         -5.6378241090        0.0260404623       -1.2126656394
 C         -6.5865180831        0.2907490814       -0.0351559271
 C         -6.0900929297        1.3689172630        0.9283172436
 H         -6.8522242143        1.4898849479        1.7012707886
 H         -5.1837360485        1.0135487848        1.4239893239
 C         -5.8077820162        2.7273082794        0.2712771990
 H         -6.3046492438        2.7802119424       -0.6981292485
 H         -6.2341880893        3.5140165052        0.8972964337
 C         -4.3226831694        3.0510715836        0.0979523243
 H         -3.8035350461        2.9093953179        1.0491399038
 H         -4.2343609113        4.1074323420       -0.1691820887
 C         -3.5851866740        2.2438549185       -0.9778136671
 H         -2.6026031593        2.7021075471       -1.1226413707
 H         -4.1335446016        2.2999603839       -1.9203486551
 H         -6.7093825959       -0.6387699164        0.5256339048
 H         -7.5610738531        0.5773689200       -0.4345879929
 H         -5.6679833324        0.8596526008       -1.9116586041
 H         -5.9574140311       -0.8810458428       -1.7283644452
 O         -3.9712962695       -1.4598256033       -0.4106775932
 C         -2.7411343352       -1.8495658881        0.1110201457
 O         -2.6700091778       -3.0666438470        0.3583567944
 O         -1.1129467140        1.3835175602        0.0513765416
 C         -0.3968423052       -1.1885063470        0.8578726988
 C          0.5699760322       -1.5627959730       -0.2356358560
 C          0.2608058391       -2.5369103052       -1.1797309395
 C          1.1749792912       -2.8680508164       -2.1631145028
 C          2.4096665036       -2.2451086893       -2.2193948188
 C          2.7242791799       -1.2634605794       -1.2864114669
 C          1.7986240218       -0.9246612087       -0.3089842112
 H          2.0400108281       -0.1555690545        0.4073117723
 N          3.9507162541       -0.5949031864       -1.3386324062
 S          4.6581926636        0.0682124960        0.0200430226
 O          6.0375699912        0.2750336887       -0.3646323963
 O          4.4420236376       -0.7514458762        1.1891504062
 C          3.8587359222        1.6474593404        0.2045059002
 C          3.3364744899        2.0145505174        1.4283875409
 C          2.7242325196        3.2514684622        1.5527559465
 C          2.6464192364        4.0955376242        0.4563203371
 C          3.1802427110        3.7140373555       -0.7651756587
 C          3.7941805151        2.4792309701       -0.8955189719
 H          4.2201715218        2.1493338967       -1.8284054058
 H          3.1152920578        4.3735378119       -1.6156866920
 H          2.1633546462        5.0548634807        0.5546493681
 H          2.3051137242        3.5481510443        2.5009318476
 H          3.4096695382        1.3246851197        2.2549519853
 H          4.6192472626       -0.9472044963       -2.0064522850
 H          3.1234444111       -2.5123141943       -2.9835851716
 H          0.9270659194       -3.6271941149       -2.8898402266
 H         -0.6966567829       -3.0335667025       -1.1283909160
 H         -0.0440295136       -0.2365230541        1.2868863166
 C         -0.4224304913       -2.2048547197        1.9904390254
 C          0.1273822291       -3.5915768647        1.8766276540
 C          0.8530425126       -2.5671945382        2.6934735722
 H          0.8431446524       -2.6601160199        3.7691416701
 H          1.7759466536       -2.1696831068        2.2947242000
 H         -0.4051983686       -4.3819769837        2.3831716463
 H          0.5622261139       -3.8957472936        0.9378318323
 H         -1.3043458931       -2.0930211528        2.6133432923
