  62
        -98.94023024
 C         -2.0761380209       -1.2418023904       -0.0393128058
 C         -2.3704844161       -0.0589052782       -0.7630711245
 C         -3.7850074762        0.3523871736       -0.7705549599
 C         -4.6997331631       -0.3931426746       -0.1267551849
 C         -6.1590613241       -0.0611955331       -0.0172011713
 C         -6.4466251146        0.7682900801        1.2420979367
 C         -5.5104507688        1.9634239596        1.4222645705
 H         -4.4960301408        1.5996292345        1.6018719599
 H         -5.8264579583        2.4906016540        2.3250882145
 C         -5.4940273209        2.9415147123        0.2392477816
 H         -5.5409875588        3.9611180789        0.6275961920
 H         -6.3794356790        2.7898519523       -0.3793474328
 C         -4.2431261248        2.8571603609       -0.6376128892
 H         -3.3496771915        2.9157799020       -0.0102999578
 H         -4.2335766218        3.7268968060       -1.3001484437
 C         -4.1300577414        1.6080624125       -1.5206159533
 H         -3.3084614870        1.7736554249       -2.2238761695
 H         -5.0509358931        1.4765943715       -2.0925967783
 H         -6.3446892493        0.1194626399        2.1150946815
 H         -7.4799299089        1.1170819383        1.1971028383
 H         -6.7212177310       -0.9950436840        0.0376250089
 H         -6.4696629951        0.4865997429       -0.9047701018
 O         -4.3819390199       -1.5259163232        0.5499978176
 C         -3.0698220122       -1.9603195166        0.6330544108
 O         -2.9168335215       -2.9863670860        1.3251131608
 O         -1.5168920044        0.6273457459       -1.3811156595
 C         -0.6587162604       -1.7730353194        0.1079911640
 C          0.2676793591       -0.6504632889        0.5022198484
 C          0.2298108808       -0.1707673128        1.8077408294
 C          1.0443830766        0.8745517265        2.2017668348
 C          1.9099032657        1.4670706527        1.2995216892
 C          1.9514603589        0.9983408389       -0.0067641381
 C          1.1455074488       -0.0636784381       -0.3954240918
 H          1.1707631547       -0.4048625891       -1.4184970428
 N          2.8199173068        1.6054631629       -0.9330225264
 S          4.4371695242        1.7283495968       -0.5277520890
 O          4.6084803078        2.7462464426        0.4779062030
 O          5.1313921735        1.9421005483       -1.7772863456
 C          4.8465559160        0.1289264539        0.1461574720
 C          4.8742769490       -0.0537851501        1.5137366401
 C          5.1174818645       -1.3231430446        2.0141359535
 C          5.3251623776       -2.3815708366        1.1435418831
 C          5.2980794254       -2.1808553801       -0.2283528718
 C          5.0511383277       -0.9152196679       -0.7342673302
 H          5.0293923667       -0.7165516329       -1.7938474706
 H          5.4641401286       -3.0055044353       -0.9029259136
 H          5.5115251228       -3.3688678304        1.5359229741
 H          5.1409034364       -1.4822675518        3.0801651528
 H          4.7137760162        0.7955105100        2.1568242389
 H          2.7087343083        1.2593234478       -1.8746372121
 H          2.5441987952        2.2914123180        1.5831057519
 H          1.0008836712        1.2368359450        3.2178457588
 H         -0.4567791388       -0.6239614575        2.5101123370
 H         -0.7112446025       -2.4785046910        0.9525984929
 C         -0.1527462849       -2.5698521903       -1.0855130215
 C         -1.0749065016       -3.4838385228       -1.8344886419
 C         -0.5309559336       -2.2575637371       -2.5008493745
 H          0.2187623550       -2.3847904223       -3.2686847537
 H         -1.1958721535       -1.4269095109       -2.6761637724
 H         -0.7044890132       -4.4489377139       -2.1454329840
 H         -2.1149174666       -3.4888454665       -1.5416745421
 H          0.8574854982       -2.9334374658       -0.9220787608
