  62
        -98.94141322
 C         -2.2946431017       -1.0888225378       -0.6077993170
 C         -3.5784232231       -0.8684158644       -0.0459939330
 C         -4.2214965296        0.4048807081       -0.3844226198
 C         -3.5883678177        1.2778935242       -1.1886998874
 C         -4.1166787290        2.6136114195       -1.6361722906
 C         -3.8730375748        3.7460658694       -0.6291812386
 C         -4.7435153669        3.6968575231        0.6271506536
 H         -4.6260745869        4.6560282829        1.1353129215
 H         -5.7912848599        3.6067537643        0.3387814820
 C         -4.3790758345        2.5730366140        1.6075440057
 H         -3.3764927836        2.2010480038        1.3811374905
 H         -4.3460740133        2.9729853925        2.6236394063
 C         -5.3555904724        1.3966022497        1.6159746758
 H         -4.9803409242        0.6469834142        2.3173204031
 H         -6.3311787033        1.7337475510        1.9730162641
 C         -5.5417247576        0.7185765909        0.2521640208
 H         -6.0687754117       -0.2257680062        0.4081009202
 H         -6.1403199809        1.3502322700       -0.4035841913
 H         -2.8185740187        3.7379172472       -0.3421676252
 H         -4.0697241466        4.6890026719       -1.1446007701
 H         -3.5954602560        2.8597001335       -2.5637423707
 H         -5.1835815611        2.5347744326       -1.8463240735
 O         -2.3623714036        1.0262947078       -1.7169354871
 C         -1.6734419116       -0.1424033014       -1.4229212436
 O         -0.5503423422       -0.2085766498       -1.9598903754
 O         -4.1601962077       -1.7004572195        0.6993520729
 C         -1.5722911377       -2.3747958414       -0.2369911052
 C         -0.4498998574       -2.0078743182        0.7020765600
 C         -0.7131927340       -1.8704539323        2.0620909586
 C          0.2706649489       -1.4379588062        2.9319204742
 C          1.5341867143       -1.1222994714        2.4632669665
 C          1.8025709318       -1.2484143231        1.1073641312
 C          0.8211359364       -1.7056620470        0.2385333469
 H          1.0376809703       -1.7802180371       -0.8153921556
 N          3.0807052288       -0.9073044566        0.6154955666
 S          3.6393768748        0.6201448321        1.0834771261
 O          4.2469718072        0.4981920100        2.3859986553
 O          2.5785293201        1.5977552022        0.9762307847
 C          4.8950871689        0.9236231780       -0.1436211646
 C          4.5094180940        1.4315230741       -1.3701200536
 C          5.4759067430        1.6453452621       -2.3400679734
 C          6.8032144189        1.3467707884       -2.0693640934
 C          7.1739621279        0.8367683649       -0.8342859004
 C          6.2126675255        0.6207743013        0.1405851610
 H          6.4522185580        0.2322449753        1.1165408474
 H          8.2068478677        0.6073402910       -0.6280693339
 H          7.5522553151        1.5150496565       -2.8268994667
 H          5.1891746278        2.0425909561       -3.3005915778
 H          3.4672155117        1.6575953600       -1.5363797057
 H          3.1089023779       -0.9828405587       -0.3935376187
 H          2.3050723390       -0.7573096493        3.1229322314
 H          0.0512547958       -1.3355225066        3.9842893944
 H         -1.7081799260       -2.0864470748        2.4259463307
 H         -2.3068604193       -2.9676648848        0.3240047067
 C         -1.1292840659       -3.1676228757       -1.4479527625
 C         -0.7082478800       -4.5949376486       -1.2703031274
 C         -2.0015706439       -4.2748730627       -1.9557140389
 H         -2.0721802290       -4.4251881197       -3.0225473407
 H         -2.9229788990       -4.4681032562       -1.4263214491
 H          0.1104742818       -4.9695966983       -1.8651056202
 H         -0.7507693625       -5.0040327770       -0.2722368755
 H         -0.6092136119       -2.5727582076       -2.1882033343
