  62
        -98.94492043
 C         -1.9625150517       -0.8525196862        0.0702263261
 C         -2.2533198361        0.1142475149        1.0599740268
 C         -2.3458631556        1.5034332488        0.5949785242
 C         -2.1199630357        1.7773191084       -0.7031211121
 C         -2.2132435388        3.1433016767       -1.3186272944
 C         -3.6265976538        3.4222889874       -1.8492439312
 C         -4.7349762355        3.1124565640       -0.8431335792
 H         -4.7529108397        2.0366114889       -0.6550689622
 H         -5.6846996317        3.3736954158       -1.3145888310
 C         -4.6046988329        3.8571519995        0.4927468935
 H         -5.5833446926        4.2544248209        0.7696704033
 H         -3.9295000094        4.7059156638        0.3793793086
 C         -4.1314399354        2.9876742035        1.6590395062
 H         -4.7478294675        2.0872867095        1.7187390403
 H         -4.2803587068        3.5491460008        2.5851290586
 C         -2.6588619134        2.5591129617        1.6181270957
 H         -2.4119134598        2.1158327995        2.5876136690
 H         -2.0213636471        3.4342391398        1.4732071215
 H         -3.7885090447        2.8083284102       -2.7380720371
 H         -3.6826389426        4.4714687202       -2.1447867002
 H         -1.9371586250        3.8882788036       -0.5745969753
 H         -1.5030765760        3.1917040842       -2.1460419289
 O         -1.8280001418        0.8238920844       -1.6238560351
 C         -1.7276766008       -0.5094518773       -1.2614544189
 O         -1.4456430212       -1.2789346428       -2.2005508717
 H          0.4495688445       -0.9365142158        0.8924393159
 C          0.6540698929       -1.8922630645        0.4304520891
 C         -0.3949742365       -2.7583517215        0.1482081579
 C         -0.1026449579       -3.9876327314       -0.4279462501
 C          1.2040153165       -4.3178224422       -0.7448980923
 C          2.2380153783       -3.4314931909       -0.5084789689
 C          1.9576606092       -2.2069193141        0.0884617699
 N          2.9831970739       -1.2852640686        0.3680131120
 S          2.6214722836        0.3607931557        0.2414259989
 O          2.0113287629        0.7969995121        1.4736666230
 O          1.8840625043        0.6288100263       -0.9728349870
 C          4.2703789953        1.0322241605        0.1280460263
 C          4.7772855526        1.3890960702       -1.1069508605
 C          6.0724235771        1.8774997754       -1.1844699795
 C          6.8354018007        1.9959371393       -0.0325979610
 C          6.3126062147        1.6341698252        1.2003134541
 C          5.0180445252        1.1470578749        1.2850756496
 H          4.5645527957        0.8621144205        2.2199968936
 H          6.9076886478        1.7301006288        2.0940270644
 H          7.8429111173        2.3754577960       -0.0959803793
 H          6.4795418790        2.1626163272       -2.1411245971
 H          4.1433334650        1.2848116195       -1.9731156697
 H          3.8458707180       -1.5077317570       -0.1108216905
 H          3.2521406811       -3.6805145637       -0.7815745484
 H          1.4169500188       -5.2728186987       -1.2008696042
 H         -0.8990916429       -4.6810729488       -0.6430313109
 C         -1.7952780717       -2.3039036575        0.4815266527
 H         -1.9115536136       -2.3146016507        1.5761993446
 C         -2.8760165746       -3.1672249094       -0.1347654338
 C         -3.3594490415       -4.3970036468        0.5727221322
 C         -4.2350927601       -3.1837369536        0.4962178002
 H         -5.1017370521       -3.2092477340       -0.1470970700
 H         -4.3714356069       -2.5915570952        1.3894998544
 H         -2.9085467708       -4.6354654681        1.5240857353
 H         -3.6293973642       -5.2589662281       -0.0184638464
 H         -2.8258086083       -3.1810231330       -1.2178552455
 O         -2.4249811876       -0.1728870413        2.2773209073
