  62
        -98.94491336
 C         -1.9210807228       -0.1611901379        0.0738048641
 C         -2.9396961245       -0.9983853359        0.5892812838
 C         -4.2508245573       -0.3682541429        0.7769987093
 C         -4.4105946636        0.9366336321        0.4902404463
 C         -5.6797303834        1.7284551666        0.6532342285
 C         -6.6499591420        1.6024136496       -0.5293819883
 C         -7.3710278700        0.2583580443       -0.6396147099
 H         -7.8393422444        0.0192572310        0.3156840862
 H         -8.1709274881        0.3837219805       -1.3721412622
 C         -6.4749290174       -0.9067251612       -1.0824634589
 H         -5.5580076472       -0.5126946095       -1.5269758780
 H         -6.9840275089       -1.4827297233       -1.8585483589
 C         -6.1037314470       -1.8816592118        0.0349755262
 H         -5.4400859506       -2.6432963703       -0.3821581850
 H         -7.0038744178       -2.3820024327        0.3988095805
 C         -5.3896457648       -1.2324789680        1.2277653775
 H         -6.0972359141       -0.6525417773        1.8197566983
 H         -4.9762223263       -2.0269476250        1.8538274652
 H         -7.4028654968        2.3860992412       -0.4176778122
 H         -6.1012073646        1.7988681469       -1.4534438661
 H         -6.1838596123        1.4288163404        1.5724445272
 H         -5.3825032327        2.7754053656        0.7444714163
 O         -3.3979360229        1.7146050369        0.0229507247
 C         -2.1366252647        1.1858957774       -0.2161805612
 O         -1.3167562693        2.0056986348       -0.6713873792
 O         -2.7590602612       -2.2100222878        0.8840965220
 C         -0.5445948538       -0.7536969674       -0.1729092031
 C          0.4842731677       -0.0015551447        0.6328591282
 C          0.3156522228        0.0767988025        2.0141001549
 C          1.2079542144        0.7815169353        2.7966719789
 C          2.2964682466        1.4142971377        2.2207582587
 C          2.4780600062        1.3383523522        0.8459696055
 C          1.5783924460        0.6268963341        0.0613577664
 H          1.7360511462        0.6029782556       -1.0032410021
 N          3.5642186177        1.9867030649        0.2362589458
 S          4.4819293578        1.2071541329       -0.9217410440
 O          5.6827704984        2.0059957649       -1.0286169015
 O          3.7244907090        1.0291908829       -2.1334162502
 C          4.8671658805       -0.3717342789       -0.1876192537
 C          4.0881200706       -1.4719567716       -0.4820217128
 C          4.3598166770       -2.6728726047        0.1547608447
 C          5.3986730113       -2.7523096120        1.0690224809
 C          6.1753329696       -1.6383357200        1.3504238054
 C          5.9060398646       -0.4342053330        0.7209899323
 H          6.4916831627        0.4522722720        0.9032084309
 H          6.9858788872       -1.7047314918        2.0581532302
 H          5.6051448969       -3.6888233369        1.5627012357
 H          3.7581308706       -3.5404335673       -0.0648805382
 H          3.2923167695       -1.3732548091       -1.2013875253
 H          4.1556298224        2.4976833597        0.8751657017
 H          2.9909399580        1.9739839400        2.8287083793
 H          1.0587043992        0.8391975406        3.8643152350
 H         -0.5372746456       -0.4145856297        2.4622064360
 H         -0.6003858965       -1.7824831930        0.2127100692
 C         -0.2503270406       -0.8068260931       -1.6564976654
 C          0.6602984579       -1.8622688486       -2.2060423606
 C         -0.8135281483       -1.9327948598       -2.4688829340
 H         -1.1741725838       -1.7201777598       -3.4641574169
 H         -1.3905385768       -2.6813356444       -1.9456099558
 H          1.3185969995       -1.6005229973       -3.0215545423
 H          1.0761220285       -2.5726621555       -1.5073004342
 H         -0.2317685152        0.1745397192       -2.1181196557
