  62
        -98.93910341
 C         -2.4746902816       -1.0280334992        0.3740174073
 C         -2.6891976543        0.1555280782        1.1292778221
 C         -3.9756888405        0.8310114384        0.9336333178
 C         -4.8838188172        0.3003966173        0.0951270297
 C         -6.2543830114        0.8501585991       -0.1931536259
 C         -6.2733181304        1.9514104740       -1.2619925310
 C         -5.7017622577        3.2983966738       -0.8178387379
 H         -5.9762559280        4.0299824110       -1.5803051801
 H         -6.1780167534        3.6047669202        0.1139651239
 C         -4.1761277766        3.3136763092       -0.6472554921
 H         -3.7646532040        4.2061039831       -1.1241574749
 H         -3.7422587041        2.4504563685       -1.1575732944
 C         -3.6998104724        3.3175996132        0.8055349011
 H         -2.6068549503        3.2884565772        0.8082458460
 H         -4.0130630172        4.2439923138        1.2922580315
 C         -4.2058203858        2.1331507642        1.6392764268
 H         -3.6429703826        2.1074030540        2.5757025471
 H         -5.2636131868        2.2592218437        1.8695660849
 H         -5.7280845533        1.5959080801       -2.1392474026
 H         -7.3146601556        2.1019621429       -1.5556095793
 H         -6.6978685097        1.2280499502        0.7284485465
 H         -6.8557000194        0.0118540592       -0.5512281249
 O         -4.6540525223       -0.8482179835       -0.5903578697
 C         -3.4476982802       -1.5284743270       -0.4919422051
 O         -3.3974598177       -2.5441420909       -1.2127821635
 O         -1.8448324645        0.6207928762        1.9421282187
 C         -1.1353337792       -1.7196330049        0.5601962748
 C         -0.1759301184       -1.3927566514       -0.5599482432
 C         -0.3855811305       -1.8468716132       -1.8584113495
 C          0.5270734189       -1.5557055819       -2.8554507796
 C          1.6702094614       -0.8270370007       -2.5774280774
 C          1.8828652818       -0.3591170448       -1.2861263127
 C          0.9565663841       -0.6379496783       -0.2906437472
 H          1.1304946906       -0.2599122270        0.7066250098
 N          3.0199257590        0.4040843679       -0.9767708002
 S          3.7255385682        0.2028095226        0.5445149404
 O          3.7544493149       -1.1996755751        0.8934311844
 O          3.0723868807        1.0816761570        1.4816883314
 C          5.3767039717        0.7921250921        0.2184774504
 C          5.6128074979        2.1538629537        0.2384299585
 C          6.8885304801        2.6162381226       -0.0429902654
 C          7.9008022972        1.7149159436       -0.3380443407
 C          7.6490839622        0.3512434511       -0.3523767444
 C          6.3750891687       -0.1180678541       -0.0731975785
 H          6.1345015824       -1.1690279142       -0.0635750030
 H          8.4388659380       -0.3468161350       -0.5786537174
 H          8.8929708247        2.0778170446       -0.5551046257
 H          7.0887612033        3.6754563359       -0.0298604961
 H          4.7973091893        2.8144565440        0.4831716982
 H          3.7090973887        0.4019977844       -1.7163487883
 H          2.3882798450       -0.6146876100       -3.3550276232
 H          0.3528168593       -1.9126881234       -3.8593817996
 H         -1.2745370058       -2.4177164708       -2.0773658292
 H         -0.7179186654       -1.2880362450        1.4809807492
 C         -1.2436567642       -3.2210794083        0.7459594396
 C         -0.0736023016       -3.9571678837        1.3243292978
 C         -1.3253308630       -3.7855449090        2.1306505352
 H         -1.9532318285       -4.6475858708        2.2989187418
 H         -1.3081510858       -3.0891611814        2.9566727665
 H          0.1589219125       -4.9381141535        0.9391757030
 H          0.7956649701       -3.3763656892        1.5982832838
 H         -1.8179336508       -3.7129030811       -0.0280467233
