  62
        -98.93346998
 C         -2.5535349994       -0.2301565205        0.6220335125
 C         -2.1065189796        0.3869312077       -0.5711642584
 C         -1.5993518184        1.7678995798       -0.4562207890
 C         -1.5767562789        2.3584875819        0.7504006959
 C         -1.0260598183        3.7114184871        1.1185517773
 C          0.4035238227        3.9763242971        0.6161972855
 C          0.4709221630        5.0715807145       -0.4483369645
 H         -0.2100144216        5.8764577270       -0.1635028583
 H          1.4814623327        5.4856649916       -0.4606920276
 C          0.1433417473        4.6056040629       -1.8652442547
 H          0.9568736372        3.9750676309       -2.2303807230
 H          0.1018855875        5.4915793359       -2.5034753328
 C         -1.1665367458        3.8283011259       -2.0194582730
 H         -1.9494350746        4.2616616624       -1.3991288080
 H         -1.4896597466        3.9317318925       -3.0577958075
 C         -1.0349603678        2.3265913506       -1.7338068926
 H         -1.5368986046        1.7599974910       -2.5252138761
 H          0.0156349142        2.0187317772       -1.7760064130
 H          0.8340308270        3.0477380934        0.2372388835
 H          1.0104083052        4.2866335266        1.4687222966
 H         -1.7015673982        4.4896673614        0.7581443112
 H         -1.0526645103        3.7470513344        2.2098430071
 O         -2.0798178764        1.7515068514        1.8657182661
 C         -2.5220544724        0.4424231609        1.8430441385
 O         -2.8598652804       -0.0050212523        2.9593674406
 H         -0.2906827975       -1.3924081615        1.0460790907
 C         -0.4730389705       -2.1163912897        0.2638391832
 C         -1.7815995574       -2.4470815095       -0.0694385981
 C         -1.9940453114       -3.3866003270       -1.0679465298
 C         -0.9180071339       -3.9477829386       -1.7354730535
 C          0.3786774253       -3.5702795617       -1.4412933821
 C          0.6016266675       -2.6396383326       -0.4314290608
 N          1.9059729454       -2.2293875713       -0.0948097142
 S          2.1389246178       -0.6298491068        0.3984112022
 O          1.7621208988       -0.5106151059        1.7859572587
 O          1.5109148796        0.2919194825       -0.5202238156
 C          3.9137811011       -0.5232001885        0.2563663079
 C          4.4761169120        0.0932948709       -0.8450285411
 C          5.8572507361        0.1397905885       -0.9554260644
 C          6.6478714593       -0.4310555764        0.0303649021
 C          6.0689887254       -1.0461959232        1.1307417169
 C          4.6890769787       -1.0943532529        1.2478541428
 H          4.1932322660       -1.5519756399        2.0879381388
 H          6.6865523524       -1.4867261838        1.8966705383
 H          7.7220959637       -0.3941876148       -0.0579944717
 H          6.3094373785        0.6199597057       -1.8081448873
 H          3.8210808074        0.5281411758       -1.5829793107
 H          2.5850826748       -2.4917507936       -0.7970234604
 H          1.2115630336       -3.9828799853       -1.9902828764
 H         -1.0952415656       -4.6705991951       -2.5175321396
 H         -2.9993043579       -3.6554813528       -1.3481147719
 C         -2.8787781409       -1.7155769397        0.6681763411
 H         -2.8040181118       -1.9845010597        1.7360117486
 C         -4.2828863768       -2.0931724910        0.2249040965
 C         -5.4019221281       -1.0979805917        0.2918005262
 C         -4.8941614356       -1.5663962410       -1.0370026139
 H         -5.5196296487       -2.2294945693       -1.6167540458
 H         -4.2989476322       -0.8911996199       -1.6302644041
 H         -6.3708422309       -1.4380218958        0.6257075953
 H         -5.1565189963       -0.0947993528        0.6100135918
 H         -4.5338915717       -3.1128966358        0.5007519144
 O         -2.1098404371       -0.1855660254       -1.6923024291
