  62
        -98.93897372
 C         -1.2632272155       -1.4359137315       -0.2915304234
 C         -2.4733425875       -1.4808594293        0.4475386150
 C         -3.5739390656       -0.6312904881       -0.0265082020
 C         -3.3852651847        0.1274458965       -1.1210822216
 C         -4.3744982243        1.1067780892       -1.6866283917
 C         -4.3708089541        2.4007654656       -0.8479688396
 C         -5.6749268988        2.6702468881       -0.0959368909
 H         -5.4777729427        3.4700739118        0.6211159701
 H         -6.4211013621        3.0383958711       -0.8033263685
 C         -6.2820471977        1.4744858549        0.6442927874
 H         -7.0354722622        1.8736497150        1.3266382896
 H         -6.8109496402        0.8349823614       -0.0638802482
 C         -5.2991927304        0.6115177048        1.4460647750
 H         -5.7853676949        0.3202520853        2.3794011778
 H         -4.4133430758        1.1875272649        1.7160201231
 C         -4.8655744356       -0.6871875001        0.7409844678
 H         -4.7065367561       -1.4602122017        1.4986565269
 H         -5.6680584264       -1.0312186099        0.0825712792
 H         -4.1677973898        3.2543378641       -1.4969801634
 H         -3.5406997517        2.3476458709       -0.1392747409
 H         -5.3670383667        0.6616333613       -1.7006684337
 H         -4.0710138409        1.3194443726       -2.7119925307
 O         -2.2178880970        0.1406689461       -1.8107239883
 C         -1.1242751066       -0.6195620907       -1.4147639518
 O         -0.1314254738       -0.4747489636       -2.1534311163
 O         -2.6264027220       -2.2153247058        1.4617490940
 C         -0.1324303294       -2.3041697173        0.2257593596
 C          0.7599712730       -1.5690729583        1.2011545826
 C          1.3454190849       -2.2510393465        2.2630380819
 C          2.1807474889       -1.5942724462        3.1472682706
 C          2.4573195759       -0.2484978846        2.9855580539
 C          1.8742295927        0.4445548797        1.9311392433
 C          1.0315621987       -0.2185215542        1.0488499664
 H          0.5743319942        0.3384342487        0.2468016342
 N          2.1173930230        1.8145917762        1.7566153339
 S          2.2948123205        2.4523924192        0.2185114314
 O          2.9618851409        3.7183757347        0.4440340531
 O          1.0170844431        2.5266429289       -0.4421018664
 C          3.4131651267        1.3292385176       -0.5978159143
 C          4.7381534193        1.3751521503       -0.2053022890
 C          5.6370907601        0.4823608439       -0.7629937927
 C          5.1965774393       -0.4428054438       -1.6979408309
 C          3.8663867024       -0.4712654081       -2.0839960800
 C          2.9590155900        0.4210771630       -1.5310026051
 H          1.9175530603        0.4107300684       -1.8139732520
 H          3.5192236819       -1.1859237019       -2.8136461132
 H          5.8933355343       -1.1434426213       -2.1304603192
 H          6.6735480419        0.5075293761       -0.4675214950
 H          5.0409947245        2.1187648021        0.5140488065
 H          2.7925887175        2.2071204867        2.3963955602
 H          3.1074167249        0.2677070856        3.6750219544
 H          2.6232861069       -2.1339331083        3.9703142062
 H          1.1288456648       -3.2991018753        2.4017895437
 H         -0.6239959494       -3.1162503672        0.7804390209
 C          0.7224558587       -2.9195328725       -0.8662701491
 C          1.3618982053       -4.2568197198       -0.6500371691
 C          0.2194800266       -4.1187221612       -1.6102132128
 H          0.4143180247       -4.1841263825       -2.6698648528
 H         -0.7421562813       -4.5170365482       -1.3202664752
 H          2.3511842334       -4.4218434716       -1.0474955388
 H          1.1723413202       -4.7640615920        0.2832746496
 H          1.2767273237       -2.1837180900       -1.4334226599
