  62
        -98.94911826
 C          1.2965823077        1.5297282350        0.5568369464
 C          2.2429651565        1.1811367573       -0.4372145219
 C          3.1994122664        0.1322556362       -0.0644354205
 C          3.1382237850       -0.4297748062        1.1560634642
 C          4.0261764624       -1.5295725402        1.6701033663
 C          3.5587202975       -2.9317778437        1.2550502865
 C          3.8040081909       -3.2914747487       -0.2110518749
 H          4.8432562947       -3.0833410976       -0.4694222621
 H          3.6526809369       -4.3688912515       -0.3036170310
 C          2.8704543981       -2.5811494066       -1.2016291720
 H          2.5013674791       -3.3045133789       -1.9333494079
 H          1.9915741032       -2.2050827965       -0.6709775692
 C          3.5220443637       -1.4407368990       -1.9852615017
 H          2.7540946705       -0.9747783640       -2.6083653014
 H          4.2927139949       -1.8467319349       -2.6451345062
 C          4.1541314230       -0.3464362125       -1.1155958648
 H          5.0738892496       -0.7117076215       -0.6593950389
 H          4.3934409458        0.5038381345       -1.7592667677
 H          4.0911478710       -3.6532979030        1.8795992459
 H          2.4910495096       -3.0242317866        1.4716911937
 H          5.0504093769       -1.3687922547        1.3326128415
 H          4.0034403572       -1.4669057164        2.7602668771
 O          2.2333830100       -0.0453092805        2.0944195972
 C          1.2634014526        0.8993252996        1.7997276078
 O          0.4388699367        1.0929891393        2.7182552982
 H         -0.3803538015       -0.0702756849       -0.1737819084
 C         -0.8797336536        0.5510960961       -0.8994456044
 C         -0.6851971930        1.9242448467       -0.8723763229
 C         -1.3176101838        2.6978476072       -1.8378369934
 C         -2.1067893093        2.0979144924       -2.8046277376
 C         -2.2970488994        0.7274917535       -2.8248791596
 C         -1.6712039863       -0.0541622473       -1.8605868645
 N         -1.8123463118       -1.4490611896       -1.8370165052
 S         -1.8224061709       -2.2689799740       -0.3803115406
 O         -0.5062772920       -2.2898557806        0.2063709742
 O         -2.3852494319       -3.5612320986       -0.7102434800
 C         -2.9735784313       -1.3616358441        0.6366254767
 C         -2.5385534770       -0.5600606892        1.6715094463
 C         -3.4741384364        0.1661288600        2.3932167561
 C         -4.8191411974        0.0794804711        2.0721657907
 C         -5.2421614606       -0.7379411220        1.0343693642
 C         -4.3126976870       -1.4623422029        0.3078432962
 H         -4.6013475657       -2.1187010606       -0.4969939802
 H         -6.2895982892       -0.8095851269        0.7898572342
 H         -5.5402485669        0.6493481026        2.6365250467
 H         -3.1338501488        0.7975195715        3.1986705878
 H         -1.4877366546       -0.5011245306        1.9099506291
 H         -2.4769561562       -1.8296181685       -2.4936251634
 H         -2.9109656213        0.2656612886       -3.5825304708
 H         -2.5853923776        2.7088793492       -3.5547765395
 H         -1.1849674613        3.7674628656       -1.8387594528
 C          0.1780135729        2.5003246892        0.2276341695
 H         -0.4417018926        2.5700699936        1.1348303849
 C          0.7229712031        3.8756163242       -0.0970549439
 C         -0.0642668180        5.1030078875        0.2486735083
 C          1.1682346926        4.7593877612        1.0280953712
 H          2.0539055759        5.3614240141        0.8917791175
 H          1.0506304372        4.3785960188        2.0325290745
 H         -0.0234002498        5.9474357867       -0.4227767768
 H         -1.0199839113        4.9667154838        0.7319922351
 H          1.3158805620        3.8831665241       -1.0039467162
 O          2.2819272048        1.7058373503       -1.5805252886
