  62
        -98.93920877
 C         -2.2528423474       -0.8164976084        0.0000377429
 C         -3.2457069852       -0.7445711303        1.0071441743
 C         -4.1392660233        0.4250678485        0.9718382104
 C         -3.9452693608        1.3639877158        0.0295615666
 C         -4.7636816230        2.6023676216       -0.2104198740
 C         -5.8540772622        2.3377352123       -1.2626769019
 C         -7.1642225909        1.7806790124       -0.7069739242
 H         -7.6794438079        2.5658880922       -0.1497925495
 H         -7.7932216723        1.5183462347       -1.5607326407
 C         -7.0231562232        0.5523225104        0.1957874916
 H         -7.9873431535        0.0407806761        0.2172726310
 H         -6.2992854721       -0.1407092272       -0.2366793119
 C         -6.6156458171        0.9039806207        1.6343310202
 H         -7.3026948414        0.4213761207        2.3324013851
 H         -6.7275090448        1.9777472966        1.7834700723
 C         -5.1984717800        0.4717118096        2.0393145459
 H         -4.8463763396        1.1173868742        2.8507221861
 H         -5.2292494630       -0.5454056819        2.4422783090
 H         -5.4434130429        1.6462168612       -2.0029690616
 H         -6.0764738179        3.2736609679       -1.7792393376
 H         -4.0777702020        3.3569549931       -0.6013806001
 H         -5.1928494676        2.9667763388        0.7181762016
 O         -2.9594044889        1.2712318176       -0.9044904314
 C         -2.0949803765        0.1906298327       -0.9515442333
 O         -1.2585929422        0.2509854301       -1.8741502171
 O         -3.3865764568       -1.6277282047        1.8949608504
 C         -1.3118737459       -2.0105157465        0.0078103197
 C          0.0587016141       -1.5216410958        0.4046644494
 C          0.3427151096       -1.3183170505        1.7525796723
 C          1.5638268585       -0.8053149521        2.1464182919
 C          2.5241651901       -0.4747185284        1.2055184682
 C          2.2431292121       -0.6561176112       -0.1412889555
 C          1.0240355987       -1.1938064913       -0.5339008137
 H          0.8151277014       -1.3171304486       -1.5846613097
 N          3.2057933964       -0.3127788852       -1.1058838504
 S          3.9875995528        1.1652127114       -0.9610246777
 O          3.1718665485        2.1457398940       -0.2824218768
 O          4.4164278153        1.4991811805       -2.3019968108
 C          5.4241380438        0.7794659820        0.0205585439
 C          6.2331395332       -0.2620361857       -0.3902595703
 C          7.3590774226       -0.5696712930        0.3564610587
 C          7.6577454296        0.1669159763        1.4931312423
 C          6.8378904349        1.2118681369        1.8904365815
 C          5.7093464154        1.5241278912        1.1481968360
 H          5.0395344775        2.3239458074        1.4220151255
 H          7.0715464750        1.7839464502        2.7740126199
 H          8.5345667780       -0.0745304668        2.0729358997
 H          7.9986960452       -1.3819064643        0.0508607734
 H          5.9668900794       -0.8075491781       -1.2800543074
 H          2.8883632977       -0.4539214818       -2.0544685079
 H          3.4738245860       -0.0620135831        1.5041714659
 H          1.7714905289       -0.6571693676        3.1952775359
 H         -0.4153896012       -1.5553577145        2.4860062243
 H         -1.6840992224       -2.6670783816        0.8055539075
 C         -1.3405053006       -2.7700792397       -1.3015690217
 C         -0.7503885300       -4.1463771320       -1.3623479520
 C         -2.2357649637       -3.9638668065       -1.4355608982
 H         -2.7313533667       -4.1311605408       -2.3801999364
 H         -2.8287963221       -4.2422758851       -0.5768512302
 H         -0.2239250790       -4.4431603954       -2.2565086623
 H         -0.3331085492       -4.5475858483       -0.4513475695
 H         -1.2361284580       -2.1330925418       -2.1715890637
