  62
        -98.93932363
 C         -2.5730815709       -0.2966378888        0.2298272301
 C         -2.6748152106        0.8762987717        1.0188540993
 C         -2.4533317700        2.1515868912        0.3270971686
 C         -2.1414496498        2.1423051203       -0.9811916214
 C         -1.8654597992        3.3649781597       -1.8069613820
 C         -0.3691818891        3.7030992491       -1.8337588020
 C          0.2870801108        3.7383012297       -0.4534484520
 H          0.3190827503        2.7216065199       -0.0534438914
 H          1.3241121409        4.0489095192       -0.6019057820
 C         -0.3879913290        4.6800145606        0.5536480574
 H          0.3890383711        5.2352207006        1.0833784771
 H         -1.0023341587        5.4086822805        0.0232325268
 C         -1.2360702694        3.9804503615        1.6176469177
 H         -1.4536327692        4.7033944121        2.4085406772
 H         -0.6593052098        3.1668178116        2.0652868482
 C         -2.5770508596        3.4110230018        1.1376497078
 H         -3.1614075998        3.1421250625        2.0225524379
 H         -3.1247788092        4.1752829616        0.5825315973
 H         -0.2450718886        4.6705368388       -2.3251615726
 H          0.1471024607        2.9461800186       -2.4296191615
 H         -2.4308941589        4.2028154902       -1.4026026626
 H         -2.2009392192        3.1699736792       -2.8273415420
 O         -2.0183909202        0.9992464698       -1.7005152507
 C         -2.1850145007       -0.2463882897       -1.1115312599
 O         -1.9802028310       -1.1987747403       -1.8871593593
 O         -2.9360274707        0.8557077126        2.2530605993
 C         -2.7187701315       -1.6351331883        0.9384960508
 C         -1.4793795218       -2.4434961290        0.6528596615
 C         -1.4657591822       -3.6742761093        0.0120814522
 C         -0.2642709624       -4.2828896400       -0.3116195573
 C          0.9434470078       -3.6759621803       -0.0163103875
 C          0.9361168482       -2.4594672399        0.6486389918
 C         -0.2630223616       -1.8645990692        0.9937408913
 H         -0.2578569913       -0.8988828089        1.4865153407
 N          2.1710106784       -1.7823721402        0.8941013216
 S          2.4163170690       -0.6421442611       -0.3403530691
 O          1.5163203594        0.4795939194       -0.1713843699
 O          2.3647139889       -1.3369014418       -1.6008406887
 C          4.0918685492       -0.1311824915       -0.0033226792
 C          4.3367674496        1.1034257187        0.5648383601
 C          5.6453129597        1.4623117784        0.8499444701
 C          6.6791161894        0.5828173578        0.5676483307
 C          6.4168091590       -0.6545323125       -0.0021313385
 C          5.1115333289       -1.0181005121       -0.2908405185
 H          4.8576377785       -1.9638799823       -0.7395695880
 H          7.2235593887       -1.3351818829       -0.2212138080
 H          7.6959088995        0.8642721875        0.7916853607
 H          5.8513755200        2.4242644285        1.2910303395
 H          3.5013118498        1.7562819791        0.7624912696
 H          2.1231913285       -1.2577674797        1.7601962112
 H          1.8827909676       -4.1165170209       -0.3070134471
 H         -0.2709572327       -5.2316594603       -0.8264855767
 H         -2.3965286824       -4.1381033092       -0.2717335376
 H         -2.7153424516       -1.3716533177        2.0100291507
 C         -4.0198396718       -2.3767759279        0.6841794311
 C         -5.2733957415       -1.6292336077        0.3426795005
 C         -4.6285577617       -2.5163972285       -0.6775046989
 H         -5.1160022320       -3.4488501285       -0.9227385684
 H         -4.1109433114       -2.0626484592       -1.5072523691
 H         -6.2018270616       -1.9474942470        0.7923370606
 H         -5.1932788610       -0.5597443978        0.2104264899
 H         -4.1342285122       -3.2239795075        1.3537975416
