  62
        -98.94565189
 C          1.1458499315        1.4347535219        0.7545459019
 C          2.0428478175        1.3973489673       -0.3397748640
 C          3.0072607201        0.2880852124       -0.3372774543
 C          2.9668761585       -0.6212383164        0.6535098339
 C          3.8567203273       -1.8264808199        0.7430895741
 C          3.2285920725       -3.0436168654        0.0502398704
 C          2.6895267030       -2.7544590929       -1.3501955038
 H          2.2924112578       -3.6917644072       -1.7448375779
 H          1.8517081073       -2.0571931815       -1.2737327660
 C          3.7311115331       -2.1946000072       -2.3289270477
 H          4.7361192172       -2.4002927632       -1.9583099824
 H          3.6265771336       -2.7107831454       -3.2855639394
 C          3.5952681766       -0.6982414122       -2.6145533750
 H          2.5645181648       -0.4691294367       -2.8972450571
 H          4.2306588486       -0.4557071615       -3.4707015839
 C          3.9971337197        0.2361480337       -1.4667478340
 H          4.9888638417       -0.0359695033       -1.0997834815
 H          4.0457449700        1.2524717278       -1.8685606744
 H          3.9793314256       -3.8340406167       -0.0031812551
 H          2.3990839949       -3.3965122762        0.6642390016
 H          4.8178851491       -1.5920026083        0.2892558102
 H          4.0119943115       -2.0602388341        1.7975831853
 O          2.0752778520       -0.5638952281        1.6763886089
 C          1.1445212009        0.4592251159        1.7517001609
 O          0.3832095826        0.3916966447        2.7376666111
 H         -1.2824528597        0.3318087748        0.2748493926
 C         -1.4806671768        1.0977090900       -0.4617203498
 C         -0.8609592113        2.3355502742       -0.3350087180
 C         -1.1248562850        3.3124802126       -1.2846181953
 C         -1.9786961214        3.0439940410       -2.3411426554
 C         -2.5989756218        1.8140899575       -2.4588927591
 C         -2.3505121026        0.8325287068       -1.5052807349
 N         -2.9539972226       -0.4324928686       -1.5864749205
 S         -3.5402116263       -1.1403404992       -0.1843921736
 O         -4.5462547611       -2.0726431234       -0.6499867438
 O         -3.9913585327       -0.1429418328        0.7577739732
 C         -2.1830336199       -2.0756759522        0.4853741714
 C         -1.5717878366       -3.0151818198       -0.3218790016
 C         -0.5677273205       -3.8040527153        0.2143197836
 C         -0.1966019804       -3.6435035124        1.5414384575
 C         -0.8120947112       -2.6894228886        2.3352867479
 C         -1.8184307257       -1.8985699988        1.8045324995
 H         -2.3135925819       -1.1405624965        2.3908476398
 H         -0.5100435714       -2.5448612617        3.3599797743
 H          0.5738936461       -4.2688726208        1.9654773207
 H         -0.0797810598       -4.5435691778       -0.4002150579
 H         -1.8950031928       -3.1169939292       -1.3445411178
 H         -3.6018766169       -0.5427344049       -2.3534785447
 H         -3.2685807948        1.6098349125       -3.2807035586
 H         -2.1689575628        3.8074710820       -3.0802809009
 H         -0.6549558164        4.2787471889       -1.2058555041
 C          0.0829976087        2.5178107390        0.8294568008
 H         -0.4842545804        2.3263286205        1.7522054208
 C          0.7038459262        3.8948139163        0.9148380155
 C         -0.0738054197        5.0270920330        1.5132761879
 C          1.0843512702        4.4365346641        2.2585684220
 H          1.9927035394        5.0138533733        2.3434730314
 H          0.8778037002        3.8189147202        3.1207947253
 H         -1.0697020466        4.8136813602        1.8720738575
 H          0.0397060297        6.0133875259        1.0894559550
 H          1.3659627026        4.1095407719        0.0847242967
 O          2.0468775270        2.2449086610       -1.2701860092
