  62
        -98.93349735
 C         -2.5789531431       -1.2392154318        0.1015753624
 C         -2.7433814890       -0.2582871222       -0.9029283008
 C         -4.1118044181        0.2582496069       -1.0908239269
 C         -5.1053588276       -0.2272924087       -0.3263205767
 C         -6.5480806302        0.1968956595       -0.3208523124
 C         -6.7926148466        1.2770725304        0.7464621440
 C         -6.5448682295        2.7112060322        0.2803116784
 H         -7.3357586595        3.0042068811       -0.4133664875
 H         -6.6238578496        3.3564755120        1.1583108776
 C         -5.1907989115        2.9579847955       -0.3902579403
 H         -4.4034058904        2.4472603919        0.1675243368
 H         -4.9806136945        4.0279850179       -0.3356222426
 C         -5.1573383748        2.5199149512       -1.8620394856
 H         -6.1755560249        2.3261609716       -2.1990060538
 H         -4.7795142292        3.3413202606       -2.4743689569
 C         -4.2724111349        1.3012725459       -2.1629468228
 H         -4.6356969950        0.8130146728       -3.0734062886
 H         -3.2519828985        1.6363800964       -2.3746089503
 H         -6.1520308236        1.0523960189        1.6032922504
 H         -7.8278690154        1.2063979233        1.0862470572
 H         -6.8532116259        0.5396846361       -1.3049204514
 H         -7.1314069617       -0.6883614661       -0.0591101765
 O         -4.9018868528       -1.1794279999        0.6264731295
 C         -3.6454170426       -1.7004431391        0.8713859312
 O         -3.6054292561       -2.5509861412        1.7839899722
 H          1.3387991453       -1.3293071382       -0.5836631917
 C          1.0223393889       -0.6111461166        0.1567011520
 C         -0.2356721645       -0.7161232281        0.7272786108
 C         -0.6073441687        0.2183318332        1.6904775659
 C          0.2472867110        1.2419522461        2.0504951118
 C          1.4940733959        1.3573696927        1.4609985754
 C          1.8814324446        0.4235794419        0.5108296916
 N          3.1401662720        0.5377288468       -0.1045745166
 S          4.4563551660        0.9535512471        0.8681445288
 O          4.4436398143        0.1676876967        2.0819333628
 O          4.4637774104        2.3840533535        1.0457232459
 C          5.8150440627        0.4659710244       -0.1766815777
 C          6.3974903569       -0.7738415966        0.0069339985
 C          7.4365385508       -1.1561706317       -0.8268700138
 C          7.8706651990       -0.2983394236       -1.8263147182
 C          7.2759315674        0.9429317536       -1.9981789710
 C          6.2373178936        1.3320980139       -1.1673841146
 H          5.7514209679        2.2895083393       -1.2580243652
 H          7.6182534402        1.6076845980       -2.7748024008
 H          8.6796707225       -0.5981378281       -2.4735828481
 H          7.9029465400       -2.1190670686       -0.6938898899
 H          6.0338911170       -1.4042813181        0.8025754098
 H          3.3521946160       -0.2566078244       -0.6926541081
 H          2.1704241057        2.1524619893        1.7307989491
 H         -0.0586802119        1.9606306930        2.7964797192
 H         -1.5821359812        0.1318182082        2.1524405069
 C         -1.2035087445       -1.8198434116        0.3733701658
 H         -1.3160901223       -2.4666603627        1.2561186491
 C         -0.7610216731       -2.6698923265       -0.7996498717
 C          0.1663166109       -3.8279936256       -0.5882424239
 C         -1.2772650392       -4.0719944377       -0.9079334973
 H         -1.5336113594       -4.4533571700       -1.8848961434
 H         -1.9272868016       -4.4215885591       -0.1188948128
 H          0.5013678301       -4.0227289660        0.4194840509
 H          0.9002461592       -4.0481557304       -1.3489916338
 H         -0.6711208427       -2.0977792557       -1.7160579733
 O         -1.7942655867        0.1718442916       -1.6095005747
