  62
        -98.93894242
 C          1.8868699079        1.4638740701        0.3168151241
 C          2.1850654816        0.5765161806       -0.7432849185
 C          3.0456892319       -0.5784820543       -0.4143604462
 C          3.4363872150       -0.7708414768        0.8590070865
 C          4.3394374503       -1.8117604909        1.4888676310
 C          4.8567336714       -2.9912246679        0.6707553412
 C          3.7971067583       -4.0407008419        0.3323989510
 H          4.2277302906       -4.7509100566       -0.3763678783
 H          3.5542277327       -4.5897260806        1.2458743499
 C          2.4882521973       -3.4981616249       -0.2363168495
 H          2.0330292720       -2.8165923827        0.4855263116
 H          1.8088520135       -4.3460912956       -0.3624619720
 C          2.6052859047       -2.7896120258       -1.5835533059
 H          1.5950926463       -2.5572104749       -1.9306841508
 H          3.0645173601       -3.4609149171       -2.3118512174
 C          3.3984854661       -1.4744088797       -1.5681469489
 H          4.4692839964       -1.6611932224       -1.5961814458
 H          3.1389787792       -0.9171572650       -2.4730808315
 H          5.6231966301       -3.4812251285        1.2771843278
 H          5.3505634459       -2.6334385863       -0.2279342440
 H          3.8044307987       -2.1892217021        2.3666092789
 H          5.1991337147       -1.2526172980        1.8743157877
 O          3.0482718606        0.0708934511        1.8644796704
 C          2.2852168764        1.1978649641        1.6254194865
 O          2.0230008119        1.8667523407        2.6471414152
 O          1.7755619564        0.7401346488       -1.9205218811
 C          1.0761232681        2.7270030964        0.0746230396
 C         -0.3479405201        2.3537800807       -0.2606019898
 C         -0.9432859080        2.5924620683       -1.4912301680
 C         -2.2541873626        2.2078135222       -1.7190055600
 C         -2.9964215124        1.5878407834       -0.7310713010
 C         -2.4066495263        1.3391766186        0.5028717691
 C         -1.0918931489        1.7172397396        0.7265378826
 H         -0.6291858016        1.5243273095        1.6867278132
 N         -3.1492924579        0.7168825107        1.5195968340
 S         -4.1554734886       -0.5568269732        1.1245883499
 O         -5.3857660362       -0.0477285657        0.5716808709
 O         -4.2825406361       -1.3264473150        2.3420234385
 C         -3.2811606947       -1.4961862825       -0.1140353785
 C         -2.0519778431       -2.0265461849        0.2234016267
 C         -1.3515909585       -2.7521215796       -0.7255226912
 C         -1.8871430345       -2.9304333592       -1.9918906163
 C         -3.1232069257       -2.3932676066       -2.3150181558
 C         -3.8295125563       -1.6683285825       -1.3684521677
 H         -4.7940834473       -1.2348696978       -1.5770790545
 H         -3.5371846008       -2.5351285080       -3.3002392947
 H         -1.3356011073       -3.4927570913       -2.7288081078
 H         -0.3901270207       -3.1700731215       -0.4744189611
 H         -1.6617945415       -1.8736489905        1.2175149812
 H         -2.6227482229        0.5298024127        2.3596349161
 H         -4.0239466201        1.3039870475       -0.8894656705
 H         -2.7065086859        2.3987249937       -2.6800274615
 H         -0.3804973477        3.0722075288       -2.2741127536
 H          1.0596682099        3.2578550171        1.0373513024
 C          1.7402737758        3.6142897036       -0.9558219908
 C          1.4024517625        5.0730512724       -1.0029601692
 C          2.7434433379        4.6299010698       -0.5018772389
 H          3.6110960506        4.8090642840       -1.1189988675
 H          2.9423531394        4.6970176560        0.5581866856
 H          1.3501789031        5.5608427190       -1.9643018351
 H          0.6892361380        5.4437104500       -0.2821416068
 H          1.9387831244        3.1047219096       -1.8904502748
