  62
        -98.94002791
 C          1.2863651636        1.2006386456        0.0384878519
 C          2.1809443163        0.7762218011        1.0462031599
 C          2.8101076085       -0.5397532300        0.8460535906
 C          2.4850502012       -1.2675358446       -0.2363848563
 C          2.9649562548       -2.6486426426       -0.6062011156
 C          4.4660083264       -2.9398208791       -0.4570865163
 C          5.3911082559       -1.7332633662       -0.6725629477
 H          6.1749344559       -2.0101317020       -1.3800472405
 H          4.8330685831       -0.9051512453       -1.1125258836
 C          6.0699507341       -1.2636837780        0.6166516312
 H          6.4055440765       -2.1404559905        1.1750563832
 H          6.9588323419       -0.6845287579        0.3548920331
 C          5.2133545393       -0.3875152972        1.5301739576
 H          5.7667737518       -0.2276550770        2.4588272870
 H          5.0680975344        0.5945219494        1.0717304271
 C          3.8243813530       -0.9495753026        1.8746121517
 H          3.8572799917       -2.0289097382        2.0030785149
 H          3.5029922125       -0.4960689791        2.8164920004
 H          4.6593839764       -3.3597214337        0.5292532300
 H          4.7106877285       -3.7181767722       -1.1817284333
 H          2.4031908580       -3.3746943579       -0.0116491849
 H          2.6687968126       -2.7818674185       -1.6488414923
 O          1.5988835920       -0.8279190710       -1.1729682263
 C          0.9836891022        0.4092822648       -1.0697984277
 O          0.2084302502        0.6804721926       -2.0030103084
 O          2.4299459901        1.4565025284        2.0789545377
 C          0.5838727536        2.5383685065        0.1815881246
 C         -0.9090818972        2.3214736300        0.1752964624
 C         -1.7925342926        3.0637370072       -0.5961983148
 C         -3.1475068773        2.7771619190       -0.5838797314
 C         -3.6510372043        1.7530064627        0.1964522155
 C         -2.7764861676        1.0136306986        0.9826892689
 C         -1.4227053761        1.3054337450        0.9727590818
 H         -0.7447342805        0.7225687123        1.5847560554
 N         -3.2749746209       -0.0416839514        1.7783309523
 S         -3.9856748942       -1.3146309606        0.9502099753
 O         -5.2309730140       -0.8625719537        0.3843452344
 O         -4.0745019054       -2.3912907923        1.9111131534
 C         -2.8395661935       -1.7400024776       -0.3468896421
 C         -1.8383923392       -2.6494489432       -0.0707644983
 C         -0.9224370859       -2.9578688778       -1.0627868369
 C         -1.0148480676       -2.3446789075       -2.3021095152
 C         -2.0193731637       -1.4260946341       -2.5599245240
 C         -2.9434254298       -1.1189137893       -1.5749399374
 H         -3.7410099773       -0.4132016120       -1.7399804049
 H         -2.0761155582       -0.9388916499       -3.5193445413
 H         -0.2926734227       -2.5742513842       -3.0692942038
 H         -0.1360724409       -3.6692714288       -0.8664143861
 H         -1.8038908188       -3.1084919479        0.9048600822
 H         -2.5828929674       -0.4115195703        2.4153385539
 H         -4.6995957248        1.5027166954        0.2003520641
 H         -3.8208791010        3.3577684223       -1.1959696070
 H         -1.4204546757        3.8609952784       -1.2182321873
 H          0.8753105349        2.9221786064        1.1707062242
 C          1.0620426034        3.5078883603       -0.8783598467
 C          1.0526803080        4.9830851166       -0.6138559985
 C          2.3520645864        4.2384318350       -0.6614671842
 H          3.0066830413        4.3925556084       -1.5061683155
 H          2.8740602119        4.0578575516        0.2670569648
 H          0.8172214619        5.6521671292       -1.4276906621
 H          0.6955712581        5.3167352280        0.3486968781
 H          0.8445329135        3.1643708489       -1.8834222038
