  62
        -98.93826879
 C          1.7905095938        1.0588210768       -0.1235542679
 C          2.3360055911       -0.1119007281       -0.6961057296
 C          3.8078967887       -0.2407814973       -0.6678756849
 C          4.5358002490        0.7488434955       -0.1175868401
 C          6.0294012734        0.8183511649        0.0584851859
 C          6.5311847983       -0.0646892264        1.2129729157
 C          5.9025911033       -1.4541604480        1.2812107840
 H          6.2498402030       -1.9308806629        2.2017045104
 H          4.8181654782       -1.3548036892        1.3573950246
 C          6.2458737807       -2.3815530204        0.1179940198
 H          7.3290870474       -2.5160672126        0.0744511491
 H          5.7989103731       -3.3549480653        0.3359218863
 C          5.7573494038       -1.9334614678       -1.2608204414
 H          5.8624946065       -2.7874271057       -1.9365789074
 H          6.3874446952       -1.1442410628       -1.6620321692
 C          4.2906152107       -1.5167582978       -1.3143929200
 H          3.9872584289       -1.4466171513       -2.3663127795
 H          3.6735724733       -2.3183566758       -0.8921219870
 H          7.6154414490       -0.1567043420        1.1309950107
 H          6.3059618927        0.4477139292        2.1514160198
 H          6.5266460995        0.5610965768       -0.8719905159
 H          6.2700613779        1.8588512250        0.2873664526
 O          3.9622565148        1.8630086681        0.4214879811
 C          2.5946869380        2.0499236670        0.4366323171
 O          2.2208843608        3.1144544584        0.9696789254
 H         -1.8407321845       -0.3045703405       -0.9503728981
 C         -1.4613636625       -0.5673314233        0.0226757436
 C         -0.3939928562        0.1201839683        0.5775172972
 C          0.0676803743       -0.2655090129        1.8344999073
 C         -0.5045658515       -1.3288495845        2.5032596156
 C         -1.5610929570       -2.0234040675        1.9398257006
 C         -2.0370287232       -1.6403150092        0.6925551747
 N         -3.1023127280       -2.3299572162        0.0981052740
 S         -4.2386640733       -1.5185657007       -0.8111386981
 O         -5.4078479642       -2.3712474388       -0.7677121858
 O         -3.7282516907       -1.2253026637       -2.1263981364
 C         -4.5633561278       -0.0001221324        0.0696774578
 C         -4.5497299182        1.1957668847       -0.6171485533
 C         -4.8117041401        2.3702038198        0.0704323840
 C         -5.0793554306        2.3280476837        1.4295130693
 C         -5.0948496595        1.1175520306        2.1057020115
 C         -4.8375547760       -0.0593674821        1.4220331630
 H         -4.8513247749       -1.0137707498        1.9222449609
 H         -5.3054993169        1.0881375200        3.1625891508
 H         -5.2782417040        3.2433685899        1.9643329866
 H         -4.8031072795        3.3112117498       -0.4562944171
 H         -4.3303794634        1.1838521838       -1.6722756588
 H         -3.5116082366       -3.0605777223        0.6605798651
 H         -2.0041315108       -2.8620698316        2.4549620089
 H         -0.1278357229       -1.6207242194        3.4719718071
 H          0.8952443482        0.2762090216        2.2726628309
 C          0.2872889621        1.2730820030       -0.1170537484
 H          0.1136551314        2.1824161595        0.4769141906
 C         -0.2028562674        1.5139715146       -1.5291345598
 C         -1.4053936384        2.3715960878       -1.7773274821
 C         -0.0389022344        2.8788786218       -2.1250404815
 H          0.2352436221        2.9581281935       -3.1663990936
 H          0.4008356385        3.6414072222       -1.4984807786
 H         -2.0691833254        2.0987610774       -2.5839647430
 H         -1.9012803631        2.7963961592       -0.9178358955
 H         -0.0389349939        0.6620612064       -2.1797727124
 O          1.6327761105       -1.0230329515       -1.2077246179
