  62
        -98.93878058
 C          1.7121101379        0.8139590395        0.1586718017
 C          3.0187664280        1.0709923564        0.6362359370
 C          3.9677988099       -0.0466052620        0.5464755974
 C          3.5576825543       -1.2291179417        0.0531254352
 C          4.3763792717       -2.4878461910       -0.0616055742
 C          5.5693858975       -2.4373245235       -1.0356485468
 C          6.9068342907       -2.0721462909       -0.3798013665
 H          6.8609646952       -2.3300064845        0.6789564262
 H          7.6931615954       -2.6896604635       -0.8186856080
 C          7.3486777555       -0.6134510605       -0.5316487013
 H          8.1620303317       -0.4351061909        0.1751279720
 H          7.7493124678       -0.4649114018       -1.5370852383
 C          6.2624371292        0.4398692966       -0.3122928005
 H          5.6039086951        0.4754952511       -1.1835653943
 H          6.7437143724        1.4180107334       -0.2507365985
 C          5.3922082926        0.2165445935        0.9398914405
 H          5.7838811655       -0.6036141722        1.5396214590
 H          5.3847164500        1.1196544248        1.5535080078
 H          5.6649219059       -3.4336480301       -1.4702070417
 H          5.3443047237       -1.7504178871       -1.8511293547
 H          4.7329238941       -2.7660290261        0.9327049469
 H          3.6782468061       -3.2587499230       -0.3938357691
 O          2.2837376236       -1.4394667923       -0.3784932462
 C          1.3368274061       -0.4269563774       -0.3535305015
 O          0.2215584035       -0.7568328613       -0.7981029592
 O          3.3717252860        2.1773351474        1.1259300540
 C          0.6834373798        1.9292580343        0.1917332921
 C         -0.5312620548        1.4957396403        0.9729706266
 C         -0.3574245435        1.0115717252        2.2680900952
 C         -1.4390708762        0.6020482204        3.0222330037
 C         -2.7195464669        0.6580604643        2.4981674390
 C         -2.9051718522        1.1444236880        1.2109389667
 C         -1.8163659200        1.5706881251        0.4605517413
 H         -1.9944332704        1.9377816871       -0.5357207852
 N         -4.1960425410        1.2376217754        0.6552397685
 S         -4.5335771385        0.4469294790       -0.7823948513
 O         -3.6771323741        0.9401598062       -1.8282006822
 O         -5.9549493439        0.6359681657       -0.9775387539
 C         -4.2094046152       -1.2727632356       -0.4355356916
 C         -2.9075733637       -1.7314963055       -0.4161107445
 C         -2.6765639656       -3.0557979563       -0.0746418840
 C         -3.7370155312       -3.8912587670        0.2387861713
 C         -5.0387581263       -3.4129392607        0.2134148312
 C         -5.2784266804       -2.0906316019       -0.1212039891
 H         -6.2728214568       -1.6754918648       -0.1570874147
 H         -5.8632868408       -4.0642746158        0.4548333308
 H         -3.5469242520       -4.9198777067        0.5024656872
 H         -1.6597566073       -3.4154089323       -0.0581857896
 H         -2.0881721065       -1.0752811811       -0.6645171403
 H         -4.9356854181        1.0457065429        1.3170039097
 H         -3.5668201163        0.3321417609        3.0823953847
 H         -1.2860057372        0.2293235902        4.0237397118
 H          0.6440942077        0.9601390364        2.6734296959
 H          1.1653879564        2.7551935949        0.7360377205
 C          0.3684246748        2.3956063193       -1.2139839169
 C         -0.0839061077        3.8035490880       -1.4557572270
 C          1.2880050833        3.3738432659       -1.8785897770
 H          1.4916149930        3.2564972833       -2.9324980694
 H          2.1341551113        3.7256241520       -1.3063574008
 H         -0.8274601610        3.9796287521       -2.2186993234
 H         -0.1695713074        4.4544756361       -0.5987901442
 H         -0.0571867656        1.6124877696       -1.8327872395
