  62
        -98.94016066
 C         -1.9932812894       -1.4886531110        0.0106498963
 C         -1.7723033962       -0.2371715030       -0.6084809315
 C         -2.9586674607        0.6167311442       -0.7933326610
 C         -4.1604164675        0.1744812505       -0.3847289692
 C         -5.5019818151        0.8524125309       -0.5098524467
 C         -5.5688467042        2.3540639071       -0.1987994221
 C         -4.5954280333        2.8367847846        0.8864671980
 H         -5.1502570660        3.4129137652        1.6292897204
 H         -4.1541433386        1.9815887742        1.4011375910
 C         -3.4827404846        3.7306988625        0.3342421246
 H         -3.0675975003        4.3212343702        1.1543930304
 H         -3.9197177584        4.4291526776       -0.3827785617
 C         -2.3180219053        2.9964511671       -0.3293725483
 H         -1.7280485661        2.4750984717        0.4297390494
 H         -1.6706717233        3.7481475995       -0.7882331328
 C         -2.7071874546        1.9664801790       -1.4022329840
 H         -3.5573764098        2.3084644987       -1.9875494995
 H         -1.8522439712        1.8392135802       -2.0723433161
 H         -5.3937818538        2.9230051543       -1.1108571673
 H         -6.5937245828        2.5659718643        0.1105970010
 H         -5.8764220698        0.6796913747       -1.5230886642
 H         -6.1594234434        0.3075325910        0.1719357504
 O         -4.3262439023       -1.0426815818        0.2077125120
 C         -3.2598311420       -1.8971275071        0.4244825165
 O         -3.5616632539       -2.9679619966        0.9892934802
 H          1.8749392141       -2.1453839381       -0.3230973159
 C          1.5718023420       -1.7007808135        0.6094025709
 C          0.2522130245       -1.7530547820        1.0284613269
 C         -0.0857619899       -1.1588357506        2.2427371715
 C          0.8687286701       -0.5191804422        3.0085892754
 C          2.1819160386       -0.4493696115        2.5751167529
 C          2.5309248190       -1.0424623791        1.3690267970
 N          3.8603628167       -1.0052529856        0.9045640718
 S          4.1829371682       -0.3006026486       -0.5818693130
 O          3.4829050421       -1.0061290730       -1.6223628954
 O          5.6271112317       -0.2913598911       -0.6764717877
 C          3.5906806664        1.3741378811       -0.4176769395
 C          2.2386075637        1.6344150927       -0.5164878070
 C          1.7975972229        2.9327139026       -0.3083894043
 C          2.7021323158        3.9388226333       -0.0084155647
 C          4.0573241479        3.6588020162        0.0854547790
 C          4.5065233627        2.3641690279       -0.1149175055
 H          5.5499698223        2.0995488423       -0.0539465980
 H          4.7612548104        4.4421551375        0.3164434166
 H          2.3484197197        4.9452092404        0.1519753354
 H          0.7416736919        3.1383067193       -0.3818360522
 H          1.5420630746        0.8453092716       -0.7526462349
 H          4.5157697331       -0.6459313654        1.5852101585
 H          2.9292308539        0.0569730015        3.1672539021
 H          0.5890429122       -0.0642517694        3.9468429241
 H         -1.1143183224       -1.2066226246        2.5753166860
 C         -0.8306686662       -2.4391439195        0.2325546878
 H         -1.2267844544       -3.2682287980        0.8373517052
 C         -0.3515820893       -2.9933298339       -1.0928884083
 C          0.2981884602       -4.3418408400       -1.1530235105
 C         -1.0829165590       -4.1497509016       -1.7022244644
 H         -1.2209854002       -4.1669933785       -2.7729830333
 H         -1.9168281074       -4.5555853806       -1.1476195694
 H          0.4040123603       -4.8877067876       -0.2275735463
 H          1.1123876230       -4.4889431525       -1.8468659947
 H          0.0126247790       -2.2243147439       -1.7653647765
 O         -0.6409162769        0.1515381776       -0.9976806723
