  62
        -98.94601987
 C         -1.6483350841       -1.2809779136       -0.7942536057
 C         -2.8305335716       -0.7878128012       -0.1816711214
 C         -3.2428589673        0.5681730482       -0.5513303145
 C         -2.5292759332        1.2536968226       -1.4620640167
 C         -2.7960920790        2.6597630112       -1.9240177685
 C         -2.1836225097        3.7198530451       -0.9978624106
 C         -2.9123921898        3.9129420981        0.3327060546
 H         -2.5308267076        4.8353473500        0.7753064095
 H         -3.9782341675        4.0544917116        0.1479125882
 C         -2.7070466933        2.7679401808        1.3349497390
 H         -1.8316151593        2.1810274329        1.0425640999
 H         -2.4878067856        3.1848240016        2.3213369332
 C         -3.9117456083        1.8391245966        1.4958223573
 H         -3.6357350666        1.0431143710        2.1925360579
 H         -4.7454027304        2.3955156132        1.9310285301
 C         -4.3887500816        1.1826776949        0.1935971948
 H         -4.9029523665        1.9129241333       -0.4307465422
 H         -5.0883092927        0.3830184332        0.4497055855
 H         -1.1423743726        3.4505759763       -0.8001596196
 H         -2.1893916758        4.6712990241       -1.5352999871
 H         -2.3408327877        2.7583587171       -2.9118085608
 H         -3.8698465319        2.8255562991       -2.0153265014
 O         -1.4519215182        0.7203033548       -2.0870517403
 C         -0.9408394981       -0.5178535127       -1.7217581911
 O          0.1169761308       -0.8028846432       -2.3192747678
 O         -3.5053670895       -1.4556289118        0.6482712817
 C         -1.1341004564       -2.6082123063       -0.2592126390
 C         -0.3318043618       -2.3176608011        0.9895820327
 C         -0.6258486026       -2.9305881650        2.2002996294
 C          0.0569428946       -2.5718367877        3.3497544707
 C          1.0128933228       -1.5737595453        3.3171785187
 C          1.3186344470       -0.9573075297        2.1070278561
 C          0.6776798162       -1.3657030588        0.9487195783
 H          0.9238536332       -0.8927423609        0.0131318932
 N          2.2662824807        0.0723842597        2.0494173815
 S          2.1181745356        1.3847816813        1.0090653802
 O          2.5971835609        2.5111009964        1.7865470526
 O          0.7848571860        1.5068984242        0.4736853924
 C          3.3286689309        1.0276231197       -0.2475427837
 C          2.9634541204        0.5251781706       -1.4789495056
 C          3.9574371699        0.2380637801       -2.4037436505
 C          5.2882015665        0.4561917599       -2.0861223702
 C          5.6387954132        0.9653063852       -0.8442306285
 C          4.6524314604        1.2528407331        0.0834417602
 H          4.8776974798        1.6625769962        1.0540477836
 H          6.6743019289        1.1372641898       -0.5984374508
 H          6.0543863221        0.2297357551       -2.8108343537
 H          3.6760132263       -0.1581817764       -3.3664886691
 H          1.9232932693        0.3554931857       -1.7134473044
 H          2.6234287679        0.3632820595        2.9475898992
 H          1.5142811500       -1.2628536280        4.2212834213
 H         -0.1791868217       -3.0528694570        4.2869126861
 H         -1.4122619597       -3.6692284089        2.2442030714
 H         -2.0271073707       -3.1725485894        0.0440084803
 C         -0.3442495501       -3.4488624936       -1.2385286416
 C         -0.2642082323       -4.9296510049       -1.0215779297
 C         -1.0697768087       -4.3809096996       -2.1599229302
 H         -0.6974867806       -4.4996061335       -3.1660452152
 H         -2.1470614568       -4.4167161551       -2.0870837091
 H          0.6648486723       -5.4311681990       -1.2440355657
 H         -0.7967329552       -5.3431315649       -0.1785974151
 H          0.5320993970       -2.9495176332       -1.6290280784
