  62
        -98.94591416
 C         -1.2975154490       -1.4207532367        0.6215698115
 C         -2.3738021927       -1.3137454907       -0.2938568240
 C         -3.3691033986       -0.2708787152        0.0035831997
 C         -3.2166787760        0.5048219614        1.0910535760
 C         -4.1336141602        1.6270159410        1.4828045688
 C         -3.6884365419        2.9661325029        0.8776901243
 C         -3.3727897818        2.8976382355       -0.6163397315
 H         -3.0945488301        3.9044597442       -0.9347552824
 H         -2.5032986228        2.2548898817       -0.7712254102
 C         -4.5329524374        2.3947090979       -1.4863910514
 H         -5.4718509579        2.4764621682       -0.9373440915
 H         -4.6153681045        3.0369420536       -2.3656823885
 C         -4.3679575853        0.9619222235       -1.9956797385
 H         -5.1214343740        0.7872497443       -2.7682804589
 H         -3.3868433884        0.8486295329       -2.4634698514
 C         -4.5298435261       -0.1409995817       -0.9422656227
 H         -5.4605023419        0.0094862915       -0.3912540967
 H         -4.5940469677       -1.0971543792       -1.4696177382
 H         -2.7941805045        3.3067801995        1.4047380755
 H         -4.4784695849        3.6992024838        1.0509223808
 H         -5.1438241154        1.3890830671        1.1545981505
 H         -4.1274830014        1.7099378253        2.5711796604
 O         -2.1736479671        0.3701203907        1.9506593144
 C         -1.1985301368       -0.5900955572        1.7408925154
 O         -0.3070811717       -0.6070658602        2.6145840882
 H          2.2123756244       -1.2584933020        0.8279326915
 C          1.9753240774       -1.3565809509       -0.2208920873
 C          0.7861059429       -1.9590238928       -0.6090201359
 C          0.5096471966       -2.0797681590       -1.9669960662
 C          1.4082895248       -1.6092867047       -2.9068384359
 C          2.5880423477       -1.0004254459       -2.5165476970
 C          2.8717189493       -0.8698826879       -1.1623268701
 N          4.0646744780       -0.2628140977       -0.7364589378
 S          4.0412565845        0.8040911295        0.5519616735
 O          5.2672630635        1.5594874939        0.4075202367
 O          3.8856940600        0.0853951821        1.7897890051
 C          2.6414806584        1.8629042469        0.2389831344
 C          2.7718640416        2.8231822052       -0.7465738724
 C          1.6871845202        3.6290459210       -1.0485823976
 C          0.4910771349        3.4589528410       -0.3670770442
 C          0.3787958485        2.4935282326        0.6200421532
 C          1.4611903733        1.6844878281        0.9294669365
 H          1.3892067996        0.9273573628        1.6948274506
 H         -0.5458920482        2.3522613297        1.1575480398
 H         -0.3572172947        4.0823403438       -0.6021893486
 H          1.7738717879        4.3846820344       -1.8125457037
 H          3.7220736709        2.9337593741       -1.2435153528
 H          4.6432142831        0.0884229188       -1.4859830988
 H          3.2869335576       -0.6319394237       -3.2518539684
 H          1.1840636583       -1.7114149575       -3.9577624555
 H         -0.4230822538       -2.5217674874       -2.2781509846
 C         -0.1762705855       -2.4360608393        0.4530228593
 H          0.3646152676       -2.4407218403        1.4093317518
 C         -0.6828232189       -3.8394997878        0.1866814088
 C          0.2416943047       -4.9961721387        0.4128073052
 C         -0.9108433671       -4.7642959208        1.3423901352
 H         -1.7512883407       -5.4409993240        1.3032461515
 H         -0.6994174205       -4.3891307562        2.3336627274
 H          0.1947262863       -5.8344476779       -0.2651402284
 H          1.2356326431       -4.7775237097        0.7743596652
 H         -1.3781026687       -3.9026827679       -0.6392866191
 O         -2.5225671678       -2.0444880798       -1.3069674880
