  62
        -98.94379984
 C          1.6471447785        1.4267531540        0.4110432297
 C          1.7631850260        0.1781144073        1.0785030334
 C          3.0293979162       -0.5400434315        0.9036971653
 C          4.0150507007        0.0179392272        0.1784364399
 C          5.3827211372       -0.5640152586       -0.0563886284
 C          5.4469288053       -1.5675932653       -1.2157839172
 C          4.7857429722       -2.9189487375       -0.9422896511
 H          5.0909311035       -3.5928493163       -1.7452689670
 H          5.1731300458       -3.3289370453       -0.0090830597
 C          3.2522327630       -2.8723201754       -0.8913078486
 H          2.9006945694       -1.9459006902       -1.3514365911
 H          2.8436242714       -3.6958980942       -1.4807524263
 C          2.6577231356       -2.9816978370        0.5128866340
 H          2.8816396965       -3.9658335343        0.9303523105
 H          1.5732938742       -2.8828692425        0.4282573946
 C          3.1520992492       -1.9116004577        1.4948213463
 H          2.5241622456       -1.9453993746        2.3884455846
 H          4.1833908165       -2.1112255922        1.7853640110
 H          6.5024932679       -1.7407586339       -1.4381264006
 H          4.9922547305       -1.1112324242       -2.0980953862
 H          5.7396004869       -1.0391920023        0.8579349202
 H          6.0408619478        0.2753613371       -0.2913246823
 O          3.8775407196        1.2265370918       -0.4240276123
 C          2.6880937137        1.9420747395       -0.3618192145
 O          2.7156857281        2.9959767443       -1.0279004025
 O          0.8505180310       -0.3077608336        1.7972104813
 C          0.3246733587        2.1542230734        0.5773610358
 C         -0.6218453826        1.8487395131       -0.5593607965
 C         -0.2843657087        2.1286276382       -1.8794142740
 C         -1.1742803428        1.8498031730       -2.9002342185
 C         -2.4095382824        1.2883543829       -2.6279534681
 C         -2.7593919951        1.0112381757       -1.3111513543
 C         -1.8628746581        1.2914131700       -0.2884083011
 H         -2.1469793024        1.0790053141        0.7302548182
 N         -4.0183891192        0.4794430334       -1.0116158355
 S         -4.3058342722       -0.4795397674        0.3214000114
 O         -5.6013221845       -1.0649146854        0.0521102853
 O         -4.2048210782        0.3022339971        1.5278969482
 C         -3.0626676493       -1.7568099142        0.2918704598
 C         -2.1327637906       -1.8472096941        1.3057272069
 C         -1.1914225594       -2.8631750457        1.2645085227
 C         -1.1939791110       -3.7637567410        0.2114422393
 C         -2.1353604741       -3.6597381355       -0.8021829017
 C         -3.0804066621       -2.6487652336       -0.7634567525
 H         -3.8381381723       -2.5498359040       -1.5236251399
 H         -2.1339646145       -4.3639592517       -1.6186215093
 H         -0.4598594393       -4.5539454016        0.1818791792
 H         -0.4554911475       -2.9285905045        2.0495161876
 H         -2.1476523339       -1.1283368581        2.1085376638
 H         -4.5786997631        0.2140348866       -1.8069895167
 H         -3.1027283648        1.0742948255       -3.4268531348
 H         -0.9025558842        2.0709089008       -3.9214438088
 H          0.6790907233        2.5650188438       -2.0943935313
 H         -0.1190883852        1.7384996696        1.4928097538
 C          0.4600181144        3.6538286929        0.7558665639
 C         -0.6634038645        4.4077157336        1.3993939180
 C          0.6299529983        4.2178591987        2.1328228125
 H          1.2811701078        5.0690273694        2.2634021063
 H          0.6491259893        3.5231552634        2.9600962448
 H         -0.9032447066        5.3915229122        1.0262525211
 H         -1.5228273926        3.8423615114        1.7288541213
 H          0.9961378680        4.1381194023       -0.0495671916
