  62
        -98.92942933
 C         -2.6025078390       -1.1154010680        0.6861721016
 C         -2.6828668563        0.1539992694        1.3102494576
 C         -3.9037988273        0.9421303650        1.0732263703
 C         -4.8649053102        0.4264181819        0.2876445245
 C         -6.1618114015        1.0676961111       -0.1230054189
 C         -6.0067950131        1.8005560501       -1.4662882540
 C         -5.5240965342        3.2464305450       -1.3592276420
 H         -6.3224247552        3.8612804209       -0.9383418889
 H         -5.3364483033        3.6027396180       -2.3747336329
 C         -4.2570681202        3.4526667571       -0.5250003241
 H         -3.8138661910        4.4064802768       -0.8183162330
 H         -3.5284232921        2.6746203906       -0.7618668572
 C         -4.5265478882        3.4735411374        0.9870636565
 H         -5.6000039987        3.5528475803        1.1574096456
 H         -4.0768788881        4.3687360702        1.4218652325
 C         -3.9664681091        2.2757218024        1.7668860838
 H         -4.5340333128        2.1585789096        2.6963908179
 H         -2.9320528957        2.4838417419        2.0586238091
 H         -6.9717532285        1.8036246607       -1.9771839687
 H         -5.3118354223        1.2254800172       -2.0836876993
 H         -6.5238449990        1.7372804548        0.6513922021
 H         -6.8810285485        0.2561042411       -0.2514261337
 O         -4.7452467521       -0.7920248701       -0.3038802740
 C         -3.6214944618       -1.5900705926       -0.1404333527
 O         -3.6752753275       -2.6614860739       -0.7695072432
 O         -1.7647442770        0.6089148422        2.0471130721
 C         -1.3414848085       -1.9190561930        0.9482893805
 C         -0.2868804460       -1.5949984880       -0.0791924138
 C         -0.5583887617       -1.6749524329       -1.4414787372
 C          0.4200417841       -1.3635802470       -2.3677698051
 C          1.6826360859       -0.9670559626       -1.9611943558
 C          1.9593696515       -0.8672830295       -0.6043672861
 C          0.9745239703       -1.1843145669        0.3244149271
 H          1.1873018582       -1.0935977310        1.3813569246
 N          3.2454661961       -0.4861640216       -0.1677812627
 S          3.9278464651        0.9348607243       -0.7792864363
 O          3.1591952480        2.0844687132       -0.3519353610
 O          4.1137122850        0.7888627078       -2.1998651606
 C          5.5067836248        0.9009673943        0.0446620397
 C          6.4877383363        0.0645586922       -0.4529803327
 C          7.7111511670        0.0082001570        0.1949284699
 C          7.9316970626        0.7842586768        1.3233341823
 C          6.9378338243        1.6198907770        1.8098270221
 C          5.7109401779        1.6798048982        1.1672419332
 H          4.9124429932        2.3205480183        1.5062518451
 H          7.1130457017        2.2239948304        2.6855047911
 H          8.8850729960        0.7396045498        1.8257501896
 H          8.4874444719       -0.6385909039       -0.1809344503
 H          6.2742271466       -0.5133513714       -1.3367140536
 H          3.2880878150       -0.4445269241        0.8430071059
 H          2.4443328619       -0.7130766133       -2.6793587328
 H          0.1986753642       -1.4317090848       -3.4226043593
 H         -1.5422546610       -1.9829159652       -1.7632558891
 H         -0.9754026592       -1.5497667520        1.9197898641
 C         -1.5910733242       -3.4127013354        1.1000959140
 C         -1.1369750024       -4.4380087542        0.1095623558
 C         -0.4503177098       -4.3279054713        1.4355738903
 H         -0.6063985369       -5.1038737919        2.1693865191
 H          0.5406301610       -3.8989963388        1.4467106118
 H         -1.7913264039       -5.2764748856       -0.0730971686
 H         -0.6071724980       -4.1032435426       -0.7680287589
 H         -2.5363768109       -3.6131900228        1.5939745024
