  62
        -98.93837885
 C          0.7099646508        1.4907541437        0.7881809887
 C          1.7646207347        1.6439325167       -0.1434246145
 C          2.8780805765        0.6906715472       -0.0148250004
 C          2.8274232809       -0.2765306102        0.9177347195
 C          3.9016383323       -1.2852781064        1.2331091327
 C          4.2650419480       -2.2868814080        0.1201756554
 C          5.4392482746       -1.8548610565       -0.7666572776
 H          6.0562157972       -1.1432204213       -0.2168522017
 H          6.0686258780       -2.7241819880       -0.9676755039
 C          5.0521309810       -1.2576577330       -2.1228212031
 H          4.7706788586       -2.0656721841       -2.8018967646
 H          5.9361991156       -0.7714076718       -2.5408153804
 C          3.8995874813       -0.2535750306       -2.0979434975
 H          2.9512492174       -0.7798384921       -1.9686430109
 H          3.8507116650        0.2351495713       -3.0729543137
 C          4.0093112111        0.8151311479       -0.9939827303
 H          4.9669670382        0.7413011588       -0.4805751343
 H          3.9310957941        1.8118367779       -1.4327800528
 H          3.3874976669       -2.4838840047       -0.4929887103
 H          4.5388724978       -3.2208229768        0.6137113863
 H          3.5348163824       -1.8335766026        2.1030166527
 H          4.8017798980       -0.7463881097        1.5388252583
 O          1.7674632394       -0.4196978199        1.7610687552
 C          0.6923466336        0.4482934832        1.7175565056
 O         -0.2015028591        0.1993548335        2.5520324754
 O          1.8014522811        2.5373419471       -1.0283170389
 C         -0.4983943886        2.4156517916        0.7759287721
 C         -1.3332380650        2.0527838116       -0.4273109846
 C         -1.2973539503        2.7536684578       -1.6256607591
 C         -2.0325803405        2.3103531138       -2.7115430856
 C         -2.8092227930        1.1695420722       -2.6263036509
 C         -2.8573433727        0.4656576840       -1.4263423403
 C         -2.1252382321        0.9137270458       -0.3385147144
 H         -2.1660093024        0.3710415683        0.5949503207
 N         -3.6432888557       -0.6838756268       -1.3123643839
 S         -3.5927014973       -1.7278009551       -0.0263568634
 O         -4.3425697850       -2.8781207555       -0.4889501922
 O         -4.1063152510       -1.0891104478        1.1601776760
 C         -1.8959633326       -2.2204622513        0.2183254437
 C         -1.0448340103       -2.3432372051       -0.8611947720
 C          0.2403655203       -2.8145358711       -0.6473398533
 C          0.6473728350       -3.1641659564        0.6305008043
 C         -0.2171923029       -3.0290543369        1.7040724428
 C         -1.5004568694       -2.5515846129        1.4980654763
 H         -2.1968227403       -2.4150278869        2.3098863569
 H          0.1050791344       -3.2819210049        2.7012513778
 H          1.6449575089       -3.5391266094        0.7949070869
 H          0.9176979295       -2.9108540061       -1.4817932450
 H         -1.3818316939       -2.0681026974       -1.8476289151
 H         -4.0189790852       -1.0764686529       -2.1604135428
 H         -3.3774296533        0.8238394193       -3.4759575963
 H         -1.9952226627        2.8586777512       -3.6405828140
 H         -0.6778006539        3.6302168416       -1.7136752996
 H         -1.0797722914        2.1625541603        1.6733951424
 C         -0.1111513707        3.8769327721        0.8439279567
 C         -1.1528640456        4.8905558412        1.2069589567
 C         -0.0607673288        4.5570941058        2.1774262711
 H          0.7143083504        5.2877657671        2.3540009446
 H         -0.3131871778        3.9701964629        3.0489695303
 H         -1.1305697070        5.8526851765        0.7186206850
 H         -2.1474835507        4.5276838749        1.4196393479
 H          0.6408218913        4.1581516368        0.1182634426
