  62
        -98.93192557
 C          2.4168427062        0.4969445690        0.4348439127
 C          3.2048829686        0.4235365582       -0.7384081190
 C          4.3130933162       -0.5538016409       -0.7181819625
 C          4.4902451604       -1.3305860642        0.3631849509
 C          5.5748632371       -2.3455354311        0.5963041534
 C          6.7549871604       -1.7140886952        1.3541058539
 C          7.8013750188       -1.0384060715        0.4685966118
 H          8.5018040811       -0.5222137723        1.1292862135
 H          8.3635832602       -1.8041188603       -0.0700498842
 C          7.2501312697       -0.0329262678       -0.5458471493
 H          6.4851761154        0.5855071998       -0.0726575000
 H          8.0669541033        0.6305909191       -0.8366272556
 C          6.6788192256       -0.6988110175       -1.8065851390
 H          6.9871538247       -1.7439649231       -1.8267978533
 H          7.1156115109       -0.2305877451       -2.6911490347
 C          5.1535332434       -0.6070910557       -1.9651053930
 H          4.8985786057        0.3078190292       -2.5092210138
 H          4.8082804103       -1.4427106315       -2.5828878356
 H          7.2551443488       -2.4915304478        1.9351729874
 H          6.3475356805       -0.9883587066        2.0628087003
 H          5.8997634739       -2.7855771189       -0.3417377092
 H          5.1392799953       -3.1281594131        1.2209699299
 O          3.6896361380       -1.2473551453        1.4620642943
 C          2.6528257065       -0.3390575917        1.5292064944
 O          2.0184159660       -0.3624078625        2.6040105991
 O          3.0169397989        1.1304695537       -1.7609723534
 C          1.2552056704        1.4631338482        0.6003829798
 C         -0.0214574993        0.8560377604        0.0781578800
 C         -0.1073669067        0.3532388032       -1.2164957692
 C         -1.2914197391       -0.1922041871       -1.6777425699
 C         -2.4077868045       -0.2538774981       -0.8616703596
 C         -2.3318275680        0.2405679596        0.4330146610
 C         -1.1426616896        0.7931905911        0.8921011825
 H         -1.0840791641        1.1670348678        1.9058847425
 N         -3.4570349131        0.1644401441        1.2703101422
 S         -4.9255661877        0.7332374384        0.6882233628
 O         -4.7318783887        1.7774944396       -0.2905787688
 O         -5.6859075628        1.0874055481        1.8666664623
 C         -5.6686474984       -0.6927109403       -0.0753489032
 C         -5.8280647278       -1.8328339998        0.6877307350
 C         -6.4151000127       -2.9472854932        0.1103068945
 C         -6.8332609304       -2.9021957592       -1.2114905174
 C         -6.6691808604       -1.7487846085       -1.9631064166
 C         -6.0817830687       -0.6306743637       -1.3917266985
 H         -5.9291972683        0.2859437003       -1.9390312516
 H         -6.9955192078       -1.7154792681       -2.9901628582
 H         -7.2898141523       -3.7712969406       -1.6582049194
 H         -6.5440237630       -3.8462450153        0.6913195654
 H         -5.4933258821       -1.8265911058        1.7116550607
 H         -3.2907263183        0.4899997213        2.2115006589
 H         -3.3314905355       -0.6798548188       -1.2178377065
 H         -1.3459299843       -0.5761608981       -2.6851656580
 H          0.7615980570        0.4011959336       -1.8550399550
 H          1.1401288530        1.5831741591        1.6896659124
 C          1.5378569513        2.8457685415        0.0276423262
 C          0.8431893805        3.4159554976       -1.1683480927
 C          0.5272986977        3.9420204558        0.1973615225
 H          0.8706513695        4.9284394841        0.4702114530
 H         -0.4292555203        3.6746542028        0.6227217947
 H          1.4281469548        4.0254530565       -1.8399487117
 H          0.0972742428        2.8163210626       -1.6653196434
 H          2.5787621854        3.1265240782        0.1520053593
