  62
        -98.94130754
 C          2.6189620875        1.1584858486        0.3900064826
 C          2.4059623694        0.4030463991       -0.7908348617
 C          3.1138371863       -0.8856656097       -0.8642472540
 C          3.8962656836       -1.2739736639        0.1578948838
 C          4.6231129444       -2.5845018369        0.2361056688
 C          3.7656156729       -3.6522986263        0.9298264270
 C          2.3398319052       -3.7516694405        0.3858001752
 H          1.8385277096       -4.5565469447        0.9282759404
 H          1.7988627455       -2.8299241142        0.6158022413
 C          2.2521869265       -4.0215979233       -1.1227399098
 H          3.2045420926       -4.4110432222       -1.4850590575
 H          1.4975026249       -4.7917110791       -1.2958178350
 C          1.8478316956       -2.8088781585       -1.9635835390
 H          0.9361487597       -2.3631033718       -1.5539016548
 H          1.6087814893       -3.1604511014       -2.9710391506
 C          2.9099033198       -1.7104379705       -2.1034570403
 H          3.8526986851       -2.1515166689       -2.4338328326
 H          2.5642871181       -1.0150215441       -2.8739559185
 H          4.2631391517       -4.6178440882        0.8236990623
 H          3.7090256699       -3.4140098161        1.9945390067
 H          4.8845044810       -2.9096308452       -0.7688189513
 H          5.5384283531       -2.4368840886        0.8116689882
 O          4.0700922543       -0.5271960545        1.2784838198
 C          3.4155490394        0.6845648634        1.4346422228
 O          3.6156818944        1.2336253667        2.5370322335
 H          0.2582463439        0.7012520162        1.6914953623
 C         -0.2613575478        1.3002198794        0.9514256113
 C          0.4371605803        2.3012359431        0.2865541863
 C         -0.2340314223        3.0548967938       -0.6657293199
 C         -1.5648697550        2.7982685064       -0.9479300813
 C         -2.2524467157        1.7945141703       -0.2909901054
 C         -1.5898821678        1.0345735031        0.6642849368
 N         -2.2798498047        0.0086778928        1.3409024082
 S         -2.9829930199       -1.1920477837        0.3941988897
 O         -3.0616715495       -2.3512031139        1.2578098114
 O         -2.2809247069       -1.3681617683       -0.8553712180
 C         -4.6272470008       -0.5771838977        0.1000470874
 C         -5.0682501299       -0.3730223853       -1.1924990481
 C         -6.3528179655        0.1085669372       -1.3930071823
 C         -7.1681055894        0.3752182098       -0.3036773959
 C         -6.7106072094        0.1616242044        0.9882908567
 C         -5.4282029993       -0.3203954562        1.1955901717
 H         -5.0339838715       -0.5043698869        2.1810206586
 H         -7.3476652390        0.3696835394        1.8327298807
 H         -8.1662603975        0.7515658335       -0.4626661968
 H         -6.7103361738        0.2746162522       -2.3965143026
 H         -4.3956764242       -0.5887359759       -2.0075509634
 H         -1.7328661129       -0.4182414619        2.0754760155
 H         -3.2858135725        1.5870843768       -0.5165158299
 H         -2.0726283089        3.3851941580       -1.6980778201
 H          0.2926684310        3.8213813495       -1.2098375767
 C          1.8960531050        2.4740521690        0.6329420233
 H          1.9644904497        2.6358567174        1.7218411448
 C          2.5407775450        3.6854929941       -0.0219624154
 C          4.0176580471        3.7267385859       -0.2753415342
 C          3.0613309882        3.6637634969       -1.4263073440
 H          2.9332217056        4.5492304401       -2.0318107597
 H          2.9742500962        2.7413878838       -1.9775571665
 H          4.5441795338        4.6509314552       -0.0901683599
 H          4.5904891799        2.8424554989       -0.0353125476
 H          2.0876013749        4.6127026974        0.3152677774
 O          1.6686649110        0.7713742502       -1.7400935135
