  62
        -98.93836705
 C         -1.7826191393       -0.0303189841        0.1316996632
 C         -2.8975358670       -0.9054613989        0.1107334870
 C         -4.1408490630       -0.3365105082       -0.4342415898
 C         -4.1578339327        0.9181430063       -0.9160411999
 C         -5.3396360869        1.6185586971       -1.5300058563
 C         -6.2853270646        2.2617040251       -0.5064300671
 C         -7.1404450149        1.2803084481        0.2962216423
 H         -7.9036185296        1.8672685638        0.8112450798
 H         -7.6559496548        0.6054293403       -0.3877908737
 C         -6.3602525873        0.4646079361        1.3366432106
 H         -5.3956914698        0.9418301071        1.5247638855
 H         -6.9063687918        0.4636675731        2.2827465109
 C         -6.1224729501       -0.9950775122        0.9494775561
 H         -7.0792903062       -1.5184164568        0.8883038179
 H         -5.5307147801       -1.4671013142        1.7380062101
 C         -5.3770310503       -1.1828295397       -0.3782297718
 H         -5.0676730848       -2.2282791220       -0.4522474397
 H         -6.0355161860       -0.9522896379       -1.2153831406
 H         -5.6943295510        2.8744629267        0.1781863531
 H         -6.9545689774        2.9283009759       -1.0552627991
 H         -4.9352917535        2.4072305364       -2.1681372840
 H         -5.8976057282        0.9192098110       -2.1532952392
 O         -3.0545594472        1.7131650074       -0.9161848732
 C         -1.8593599571        1.2695753495       -0.3769106189
 O         -0.9429769500        2.1159867263       -0.4052961588
 H          2.1585437609        0.0899671601        0.1716610274
 C          1.7750083158       -0.6977721814       -0.4580363853
 C          0.4456833407       -1.0769468677       -0.3465325918
 C         -0.0397922119       -2.0723996992       -1.1879434598
 C          0.7946740603       -2.6727082054       -2.1131802269
 C          2.1283730442       -2.3133531089       -2.1993644418
 C          2.6236089839       -1.3213902884       -1.3617025360
 N          3.9681857962       -0.9302705648       -1.4167093404
 S          4.7822392626       -0.5824920992        0.0055652375
 O          6.1782931468       -0.7871708124       -0.3149265081
 O          4.2620539697       -1.3502984850        1.1118868736
 C          4.4970879539        1.1546822499        0.2641054784
 C          4.0032086940        1.5964081608        1.4752693038
 C          3.7999521904        2.9546904365        1.6610375968
 C          4.0945962469        3.8423279422        0.6379835010
 C          4.5939110502        3.3828323218       -0.5714302065
 C          4.7994138697        2.0263555870       -0.7631526144
 H          5.1876668571        1.6317730022       -1.6872443879
 H          4.8203143959        4.0774615986       -1.3642517056
 H          3.9320525212        4.8984542842        0.7846437889
 H          3.4093572355        3.3133854406        2.5998990635
 H          3.7802617135        0.8717690464        2.2430952079
 H          4.5392776636       -1.4528637457       -2.0647563314
 H          2.7817604994       -2.7961313935       -2.9102585782
 H          0.4063164664       -3.4418535171       -2.7638825340
 H         -1.0711493151       -2.3785093656       -1.1018970321
 C         -0.4253164041       -0.4190928746        0.6921819842
 H          0.0571190558        0.5342043018        0.9624381451
 C         -0.5180812037       -1.2467260633        1.9676960834
 C         -0.2251017359       -2.7120018084        2.0298757740
 C          0.7282674659       -1.7352215152        2.6463723007
 H          0.7832528004       -1.6774441721        3.7233730268
 H          1.6757623340       -1.5788730938        2.1498680531
 H         -0.8433539759       -3.3193750755        2.6731651476
 H          0.0738704162       -3.2110181225        1.1216525545
 H         -1.3129014092       -0.8917500263        2.6167736982
 O         -2.8809056395       -2.0966916683        0.5106682075
