  62
        -98.93978007
 C         -1.4757678395       -1.5397618621       -0.4911467855
 C         -1.2297620346       -0.1702391460       -0.7751286619
 C         -2.3834783148        0.7344354073       -0.6479784817
 C         -3.5983175453        0.2537424158       -0.3373612951
 C         -4.8749773448        1.0438542933       -0.2374582030
 C         -5.0920379048        1.7242289827        1.1205186324
 C         -4.1793238002        2.9187553456        1.4000589974
 H         -4.2302420362        3.6185225859        0.5653673408
 H         -4.5776964382        3.4299107933        2.2787544300
 C         -2.7160731350        2.5410944506        1.6704352357
 H         -2.6491615788        1.4764040229        1.9074302893
 H         -2.3521531558        3.0797846629        2.5486342157
 C         -1.7503379371        2.8479197715        0.5254295923
 H         -0.7636537679        2.4796319942        0.8208036790
 H         -1.6834940498        3.9298660828        0.3845076841
 C         -2.1298644680        2.2020292206       -0.8137041135
 H         -3.0052464311        2.6968484779       -1.2348465594
 H         -1.2903197218        2.3196727859       -1.5030289313
 H         -6.1281534944        2.0693794998        1.1506243872
 H         -4.9662725473        0.9792054375        1.9096588519
 H         -4.9016924460        1.7939466408       -1.0285555559
 H         -5.6904058781        0.3357509998       -0.4009700158
 O         -3.8080250698       -1.0680284428       -0.1030183898
 C         -2.7613354381       -1.9716738051       -0.1303145066
 O         -3.1064726201       -3.1340366314        0.1698384270
 O         -0.1303901048        0.3168240871       -1.1421545750
 C         -0.4394466142       -2.6583842927       -0.4853442048
 C          0.5904598739       -2.5056997701        0.6109842722
 C          0.6874158989       -3.4631448638        1.6162808789
 C          1.6395263709       -3.3457567166        2.6129077933
 C          2.5010552743       -2.2632196467        2.6379637455
 C          2.4073471182       -1.2986726330        1.6422740353
 C          1.4717518998       -1.4355434257        0.6273135736
 H          1.4008341896       -0.6794667761       -0.1347965663
 N          3.2618916783       -0.1845529345        1.6216845860
 S          2.6046354025        1.3261755846        1.2916785149
 O          3.5524354324        2.2595496362        1.8732518505
 O          1.2546432669        1.4328006118        1.7948266522
 C          2.6686979706        1.5172650993       -0.4762748229
 C          3.4856287337        0.7060849094       -1.2359162902
 C          3.5391275869        0.9090209017       -2.6057085594
 C          2.7862864920        1.9164400764       -3.1874006490
 C          1.9796465802        2.7291323958       -2.4072228807
 C          1.9202036595        2.5305879247       -1.0378192811
 H          1.2938049926        3.1319514966       -0.3985098918
 H          1.3899807662        3.5103845082       -2.8605235110
 H          2.8230938990        2.0656685658       -4.2552654043
 H          4.1625314499        0.2748253942       -3.2155687757
 H          4.0488844277       -0.0780935826       -0.7574681320
 H          3.9098809283       -0.1305928533        2.3945460368
 H          3.2355001248       -2.1625834131        3.4230520530
 H          1.7048610478       -4.0981425446        3.3844920995
 H          0.0022957049       -4.2991677319        1.6165119700
 H         -1.0344013041       -3.5508392827       -0.2359500553
 C          0.2450232950       -2.9978548913       -1.8063034015
 C         -0.4162844908       -2.7545041503       -3.1289079237
 C          0.8367966523       -2.0151290695       -2.7678875225
 H          1.7545597862       -2.2950085530       -3.2642464131
 H          0.7597104524       -0.9653267510       -2.5408037432
 H         -0.3733698562       -3.5288630401       -3.8804898871
 H         -1.3454320572       -2.2021130043       -3.1216016394
 H          0.7820697554       -3.9385974914       -1.7135753317
