  62
        -98.94362743
 C          1.2693397841       -0.8558380328       -0.2000552274
 C          1.7302010828        0.2779561943       -0.9157215321
 C          2.7882702226        1.0673270555       -0.2731818113
 C          3.1881020824        0.7382828762        0.9682175608
 C          4.2893870004        1.4216523919        1.7247118738
 C          5.6440523093        0.7477960416        1.4639399890
 C          5.9469910008        0.5216229058       -0.0172923874
 H          6.9388683771        0.0691627956       -0.0806968819
 H          5.2363765849       -0.2042327130       -0.4191831886
 C          5.9093543253        1.7945277413       -0.8744592334
 H          5.9838169169        2.6743096886       -0.2342849642
 H          6.7796180384        1.7985689745       -1.5340596683
 C          4.6734108358        1.9217208580       -1.7670016580
 H          4.5432216277        1.0032966423       -2.3450116298
 H          4.8492284698        2.7336513791       -2.4775746868
 C          3.3558003737        2.2265806150       -1.0427817335
 H          3.4839262188        3.0942362670       -0.3917671318
 H          2.6077271214        2.4770581868       -1.8009560103
 H          6.4271259551        1.3654940672        1.9073534011
 H          5.6500656801       -0.2218971321        1.9671486468
 H          4.3284226542        2.4690394299        1.4309227820
 H          4.0614007820        1.3626469722        2.7904566722
 O          2.6534800998       -0.2951513304        1.6654035219
 C          1.6824391128       -1.1180244570        1.1069621886
 O          1.2851438172       -2.0161089331        1.8719910266
 H         -1.0094415229        0.2382903034        0.4706869444
 C         -1.4967071842       -0.7070617245        0.6558429557
 C         -0.9818544419       -1.8632130283        0.0838690486
 C         -1.5941912882       -3.0745841718        0.3755617358
 C         -2.6890879219       -3.1162633982        1.2221180880
 C         -3.2110093214       -1.9597044025        1.7715785859
 C         -2.6025396984       -0.7421008610        1.4874840618
 N         -3.0952858097        0.4611860572        2.0149512594
 S         -3.0147444223        1.8478463574        1.0857817977
 O         -1.6784477698        2.3899262564        1.1001152010
 O         -4.0450349701        2.7050011627        1.6335872871
 C         -3.4733475629        1.3238612926       -0.5575938981
 C         -2.5534744160        1.3374795385       -1.5856718827
 C         -2.9369892156        0.8710967082       -2.8335686457
 C         -4.2262616572        0.4030928027       -3.0316706931
 C         -5.1430568249        0.4056557675       -1.9910709676
 C         -4.7645628451        0.8674137628       -0.7416226141
 H         -5.4513891864        0.8932120860        0.0886587163
 H         -6.1469212776        0.0461411326       -2.1491910484
 H         -4.5171492234        0.0366881820       -4.0034500131
 H         -2.2178770291        0.8703390605       -3.6373803161
 H         -1.5534717998        1.7001281515       -1.4037281658
 H         -3.9666921032        0.3855653917        2.5181196434
 H         -4.0689623954       -1.9955932940        2.4251025605
 H         -3.1488097793       -4.0655323578        1.4513700600
 H         -1.2034138537       -3.9887558233       -0.0395649122
 C          0.1925744670       -1.7054585181       -0.8490855919
 H         -0.1516484302       -1.0920168570       -1.7001208464
 C          0.6880336604       -3.0169640394       -1.4400519810
 C          2.1325369544       -3.2144154734       -1.7880941833
 C          1.5217761139       -3.9867411909       -0.6593528751
 H          1.3453684632       -5.0431354393       -0.8006262078
 H          1.7833684493       -3.7171162111        0.3514021356
 H          2.3747742568       -3.7361888258       -2.7018850088
 H          2.8193305895       -2.4160742147       -1.5453161297
 H         -0.0298051072       -3.4445800416       -2.1331352827
 O          1.2726528189        0.6148379846       -2.0411271542
