  62
        -98.94298014
 C         -2.6792948043       -1.1998801186        0.1122747046
 C         -2.6985049375       -0.1871694870       -0.8764969512
 C         -3.9017278684        0.6571160038       -0.9005808816
 C         -4.8979336785        0.4117538011       -0.0299422355
 C         -6.1520651067        1.2272690572        0.0902403047
 C         -5.9840787965        2.3546875082        1.1186176596
 C         -4.7114974246        3.1802243381        0.9284124431
 H         -4.7154321668        3.9631119179        1.6899512897
 H         -3.8425132619        2.5473642229        1.1231482142
 C         -4.5702898172        3.8185932983       -0.4604190452
 H         -4.2476634625        4.8546209810       -0.3378432423
 H         -5.5399721460        3.8383223201       -0.9591762250
 C         -3.5459717522        3.1380249234       -1.3704933324
 H         -3.3681648812        3.7907711414       -2.2292452626
 H         -2.5967711435        3.0302971080       -0.8392763122
 C         -3.9492416817        1.7627316884       -1.9172181132
 H         -4.9379871721        1.8238427659       -2.3763484032
 H         -3.2263202465        1.4880260104       -2.6909046217
 H         -5.9585002478        1.9114364097        2.1168449622
 H         -6.8563595435        3.0082158805        1.0597584543
 H         -6.4036511698        1.6434830193       -0.8832132513
 H         -6.9603110260        0.5695248922        0.4143271896
 O         -4.8539303593       -0.5902046939        0.8857721189
 C         -3.7415180426       -1.4086695443        0.9910564400
 O         -3.8168894317       -2.2697717144        1.8912935000
 H          0.9785414064       -2.2151928740       -1.0375147573
 C          0.9391244592       -1.4664979398       -0.2616699132
 C         -0.2259344179       -1.2838532825        0.4650915778
 C         -0.2366852847       -0.3177432045        1.4682195244
 C          0.8794174075        0.4566129487        1.7167398939
 C          2.0347981923        0.2848125018        0.9737125970
 C          2.0636777123       -0.6865112691       -0.0161253898
 N          3.2274228644       -0.8654566215       -0.7786057726
 S          4.7200166969       -0.9015723349       -0.0189336990
 O          5.5783718487       -1.6436832777       -0.9162489513
 O          4.6158871524       -1.4041080794        1.3312208063
 C          5.2356451600        0.8025500737       -0.0010252820
 C          5.2574267306        1.4891951394       -1.1990788875
 C          5.6648466755        2.8135216976       -1.2039621418
 C          6.0442020966        3.4248815014       -0.0181584228
 C          6.0207433268        2.7207385674        1.1758362814
 C          5.6133961845        1.3957381953        1.1875261728
 H          5.5747557682        0.8111728552        2.0930794766
 H          6.3166926383        3.1975758422        2.0964710090
 H          6.3600388033        4.4561859412       -0.0248055686
 H          5.6839937410        3.3644009142       -2.1305427261
 H          4.9575019151        0.9788651774       -2.0991049115
 H          3.1537882377       -1.5798312361       -1.4877709808
 H          2.9072470919        0.8892385457        1.1598515696
 H          0.8510014013        1.2051670483        2.4942662711
 H         -1.1391614358       -0.1814183706        2.0494142322
 C         -1.4697040405       -2.1083483851        0.2362311494
 H         -1.6391852448       -2.7215445209        1.1337063090
 C         -1.3853413111       -3.0239587919       -0.9674230084
 C         -0.7392810122       -4.3709886161       -0.8489927582
 C         -2.2271359246       -4.2627354231       -0.9920468100
 H         -2.6795546910       -4.5609485969       -1.9258973112
 H         -2.8426980575       -4.4598562826       -0.1263281179
 H         -0.1721721346       -4.7489341749       -1.6867607486
 H         -0.3415311836       -4.6525321128        0.1145857544
 H         -1.2715744937       -2.4790347159       -1.8977815747
 O         -1.7621192012        0.0029890597       -1.6955133030
