  62
        -98.93588883
 C          2.7225588900        1.1289335082       -0.3032766984
 C          2.4608548274       -0.0238191599       -1.0838583779
 C          3.3400386626       -1.1789727105       -0.8383124660
 C          4.3170863909       -1.0894426097        0.0810419619
 C          5.2396938369       -2.2074883085        0.4691151847
 C          4.6706362492       -3.0149384067        1.6442366978
 C          3.2139836667       -3.4384399017        1.4549680111
 H          2.9308853142       -4.0276203212        2.3298642306
 H          2.5816024974       -2.5473857213        1.4506449154
 C          2.9504980137       -4.2543386643        0.1815636188
 H          2.3112203571       -5.1023841379        0.4355833467
 H          3.8887331299       -4.6587466096       -0.1997790539
 C          2.2423849369       -3.4807433686       -0.9321578398
 H          1.3502246563       -2.9952059156       -0.5285626986
 H          1.9116740487       -4.1985514584       -1.6874356865
 C          3.0869838600       -2.4195073278       -1.6489060052
 H          4.0286831609       -2.8609140130       -1.9809573772
 H          2.5304328093       -2.0923107223       -2.5320738139
 H          5.2933177961       -3.8997547233        1.7882635201
 H          4.7344855875       -2.4034908165        2.5473173085
 H          5.3969454685       -2.8570684143       -0.3897427423
 H          6.1965560465       -1.7752270282        0.7664558126
 O          4.5449931683        0.0354056675        0.8056487784
 C          3.7568197495        1.1594420915        0.6380408844
 O          4.0752206622        2.1185936241        1.3689225315
 O          1.5448974341       -0.1100989217       -1.9435304067
 C          1.9225108322        2.4167637422       -0.4260875684
 C          0.6589654528        2.3526433741        0.3929721401
 C          0.3646535110        3.3294429533        1.3360304123
 C         -0.8064600598        3.2661611729        2.0718372071
 C         -1.7044983249        2.2307285650        1.8848434111
 C         -1.4181628624        1.2481715887        0.9453970568
 C         -0.2449738479        1.3151825205        0.2080311673
 H         -0.0287448586        0.5569352959       -0.5306959797
 N         -2.3150737302        0.1736000665        0.7491411107
 S         -3.8939376911        0.6069494380        0.3226345427
 O         -3.8791618983        1.4380341856       -0.8619808656
 O         -4.5390808877        1.1733856424        1.4797848739
 C         -4.5946022618       -0.9888377737       -0.0420936630
 C         -5.0381005826       -1.7714302135        1.0067097269
 C         -5.5580793707       -3.0260519260        0.7318987128
 C         -5.6235524850       -3.4748467475       -0.5789716258
 C         -5.1746760527       -2.6774049553       -1.6208399244
 C         -4.6525320605       -1.4216548134       -1.3528121770
 H         -4.2992926352       -0.7655298526       -2.1324385699
 H         -5.2284653988       -3.0278638997       -2.6390398413
 H         -6.0292279536       -4.4515031460       -0.7907835668
 H         -5.9099714053       -3.6487672796        1.5384862407
 H         -4.9743327898       -1.3775872394        2.0075027963
 H         -1.9555752158       -0.4623780882        0.0475946582
 H         -2.6255183662        2.1792644638        2.4420307459
 H         -1.0236736558        4.0326746045        2.8004927688
 H          1.0641494998        4.1372331673        1.4961463742
 H          2.5649823455        3.1929136329        0.0180616742
 C          1.6722219598        2.8147633208       -1.8763877300
 C          0.3174234335        2.8766909116       -2.5101180938
 C          1.0486587127        4.1430854754       -2.1882205202
 H          1.4547551572        4.7316208400       -2.9968348203
 H          0.6862535791        4.7266611069       -1.3549195217
 H          0.2369544299        2.5705583763       -3.5422615788
 H         -0.5487540283        2.6238412359       -1.9177875820
 H          2.4838687351        2.4998464451       -2.5245845094
