  62
        -98.94350528
 C          1.9504338397        0.7844442465        0.5437366428
 C          2.1609762042        0.1451652982       -0.7014011905
 C          2.4627964849       -1.2893861139       -0.6362230845
 C          2.4632065157       -1.9199313534        0.5520587462
 C          2.7129663345       -3.3870262666        0.7758868318
 C          4.1987401862       -3.7651633837        0.8525148334
 C          4.9496778137       -3.7258875437       -0.4790186081
 H          5.9112065349       -4.2173444069       -0.3182771431
 H          4.4033702685       -4.3113145401       -1.2190450640
 C          5.2020561663       -2.3124272520       -1.0218613517
 H          5.0640789578       -1.5842432690       -0.2192917399
 H          6.2389591191       -2.2300638628       -1.3550314042
 C          4.3140952591       -1.9191544502       -2.2024413808
 H          4.5357598206       -2.5609615696       -3.0578363046
 H          4.5514685704       -0.8896977821       -2.4818609329
 C          2.8090156840       -1.9945353324       -1.9128643392
 H          2.2754102054       -1.4903205392       -2.7223276311
 H          2.4829079712       -3.0337473831       -1.8737057111
 H          4.6899597938       -3.1022866694        1.5685677349
 H          4.2549847313       -4.7819974455        1.2478289493
 H          2.2414367529       -3.6385546924        1.7285473406
 H          2.2269265447       -3.9632369042       -0.0120421616
 O          2.2099795966       -1.2771490600        1.7245036981
 C          1.9591579415        0.0849720411        1.7487945586
 O          1.7632447209        0.5516718457        2.8918426319
 H         -0.5548403731        0.7287610736        0.4474714645
 C         -0.6752091397        1.6329837494       -0.1324662737
 C          0.3643065787        2.5522762697       -0.1917642246
 C          0.1818872145        3.7128020787       -0.9333330570
 C         -1.0101632477        3.9357497904       -1.6008643176
 C         -2.0392277554        3.0149232187       -1.5442103607
 C         -1.8640816658        1.8461838063       -0.8094602166
 N         -2.8718129782        0.8686636223       -0.7776975542
 S         -2.9258759375       -0.2660844751        0.4626319716
 O         -2.9034071759        0.3910662983        1.7515552715
 O         -1.9120512578       -1.2653065620        0.2302509235
 C         -4.5390916888       -0.9639104261        0.1624329498
 C         -5.6153366501       -0.5403618330        0.9189153019
 C         -6.8696740153       -1.0684189142        0.6555325548
 C         -7.0261822527       -2.0033195819       -0.3565716623
 C         -5.9364301834       -2.4194157311       -1.1072519453
 C         -4.6795229750       -1.8964406540       -0.8481554466
 H         -3.8018365792       -2.1946267433       -1.3978623404
 H         -6.0611160731       -3.1483954427       -1.8915840437
 H         -8.0030412987       -2.4126494984       -0.5598773373
 H         -7.7176172671       -0.7492587782        1.2396984085
 H         -5.4427827695        0.1822065421        1.7002736157
 H         -3.7871625283        1.2236642563       -1.0160203706
 H         -2.9657192772        3.1886916406       -2.0693481126
 H         -1.1395555438        4.8419837802       -2.1728402521
 H          0.9736210121        4.4419061312       -0.9888222167
 C          1.6274362454        2.2653406773        0.5860818752
 H          1.4310228580        2.5035326291        1.6431477387
 C          2.8175535140        3.0767685161        0.1141244090
 C          3.0993227384        4.4265774448        0.7003945699
 C          3.9771875588        3.2622201648        1.0445653220
 H          4.9765959747        3.2275625872        0.6377466066
 H          3.8915835166        2.8285620274        2.0308505595
 H          3.5009491907        5.1946535965        0.0567462653
 H          2.4263266092        4.7922420182        1.4613896273
 H          3.0375749964        2.9145488855       -0.9347267828
 O          2.1001474517        0.7391735831       -1.8098081315
