  62
        -98.94504679
 C         -1.1127054384       -1.8607924393       -0.6862500111
 C         -0.4235618814       -2.3752258873        0.4418351476
 C          1.0108938554       -2.6564139454        0.2404237987
 C          1.5779601150       -2.4222744335       -0.9552799754
 C          3.0302281554       -2.6178892409       -1.2787397328
 C          3.8437973534       -1.3406945322       -1.0305717594
 C          3.6273603554       -0.7201385319        0.3497458313
 H          4.3027194697        0.1348975350        0.4326139318
 H          2.6119278911       -0.3248681835        0.4213740733
 C          3.8646857993       -1.6755787314        1.5269173662
 H          4.4594449107       -2.5313428979        1.2033250334
 H          4.4391994425       -1.1491655440        2.2920627114
 C          2.5801740076       -2.1669143715        2.1981272954
 H          1.9330727166       -1.3111418642        2.4088904448
 H          2.8476327927       -2.6195477445        3.1573543619
 C          1.7722237805       -3.2082468557        1.4123368451
 H          2.4301953381       -4.0209890290        1.0945701013
 H          1.0186649273       -3.6209752735        2.0900145118
 H          4.9012814003       -1.5798689338       -1.1582202245
 H          3.5682441266       -0.5984107343       -1.7832596064
 H          3.4234015153       -3.4333900166       -0.6746790108
 H          3.1106327674       -2.8877391455       -2.3333250875
 O          0.8819634248       -1.9451498939       -2.0192259207
 C         -0.4639908806       -1.6390236558       -1.9044371598
 O         -0.9729121215       -1.1858254580       -2.9491732131
 H         -1.2305908318        0.0589090911        1.1473187764
 C         -1.8665668380        0.6622703907        0.5171087345
 C         -2.6528331552        0.0583384602       -0.4544669699
 C         -3.4775747798        0.8570329966       -1.2375861808
 C         -3.5077109591        2.2281288286       -1.0545030490
 C         -2.6947976397        2.8294170500       -0.1106101085
 C         -1.8623077962        2.0406618206        0.6755815591
 N         -1.0064129628        2.6227933617        1.6282689363
 S          0.6133122734        2.1954891844        1.6382449884
 O          0.7634363346        0.8262354550        2.0508232653
 O          1.2419842628        3.1922997493        2.4768072638
 C          1.1525560915        2.4057149139       -0.0478014398
 C          1.7304074890        3.6026431775       -0.4236471571
 C          2.1019360961        3.7811438490       -1.7463945520
 C          1.8789019124        2.7707684660       -2.6703387884
 C          1.2940434521        1.5763066444       -2.2790748393
 C          0.9302769993        1.3900721176       -0.9551863559
 H          0.4759714752        0.4688466085       -0.6255616128
 H          1.1041700706        0.7852911585       -2.9887498587
 H          2.1617296938        2.9113956995       -3.7016363654
 H          2.5601172272        4.7069842576       -2.0549111409
 H          1.8880782312        4.3590408702        0.3281147463
 H         -1.0963082623        3.6265147602        1.7010208078
 H         -2.6990720705        3.9012138821        0.0170021550
 H         -4.1547953170        2.8374718241       -1.6665153884
 H         -4.0831397370        0.3981452598       -2.0049490457
 C         -2.5731696198       -1.4330743640       -0.6716972072
 H         -2.9491437512       -1.6326466711       -1.6887517773
 C         -3.4456454349       -2.2208853396        0.2925913442
 C         -3.9429987004       -1.6645212353        1.5891006799
 C         -4.8949334021       -1.8664593128        0.4506944561
 H         -5.6168965971       -2.6662522295        0.5154651660
 H         -5.2528995548       -0.9859618879       -0.0610110900
 H         -3.9861736137       -2.3331296899        2.4352147584
 H         -3.6625969267       -0.6560068678        1.8519120887
 H         -3.2008668969       -3.2775780540        0.2877712104
 O         -0.9541733559       -2.6090899659        1.5567517782
