  62
        -98.93798437
 C         -2.1575567865       -1.2371948311       -0.1683607396
 C         -2.5719022023       -0.1435655712       -0.9624254611
 C         -3.9648314398        0.3053158693       -0.7773896438
 C         -4.7498672397       -0.3395697427        0.1028409052
 C         -6.1696798497       -0.0135734141        0.4756429553
 C         -6.2099611992        0.8956983865        1.7155068691
 C         -6.1171646952        2.3922724091        1.4202838264
 H         -7.0500421385        2.7256584000        0.9607540996
 H         -6.0221414985        2.9075768800        2.3788537769
 C         -4.9521497293        2.8118734407        0.5198319335
 H         -4.0454734474        2.2814258124        0.8170821071
 H         -4.7696765176        3.8760319090        0.6821882301
 C         -5.2288405235        2.5779239104       -0.9727802076
 H         -5.0223811138        3.4964211792       -1.5262018023
 H         -6.2893989867        2.3670906727       -1.1095694331
 C         -4.3925853263        1.4692726797       -1.6290305586
 H         -4.9318077575        1.0848403055       -2.5014475558
 H         -3.4561391984        1.8945557204       -2.0042064890
 H         -5.3902185587        0.5990509443        2.3748494679
 H         -7.1429661628        0.7145891275        2.2529837121
 H         -6.6514389863       -0.9615248003        0.7243102373
 H         -6.6948725586        0.4375093384       -0.3608749711
 O         -4.3099129712       -1.3941337195        0.8435154460
 C         -3.0136811394       -1.8608151931        0.7391956198
 O         -2.7457892660       -2.8186289345        1.4921966601
 O         -1.8195987582        0.4374460622       -1.7884449171
 C         -0.7373138156       -1.7666611578       -0.2724210399
 C          0.2289954642       -0.6708764668        0.1056042789
 C          0.1626903096       -0.1441137876        1.3933367276
 C          1.0085300658        0.8747867599        1.7864561884
 C          1.9405581859        1.3928462818        0.9036781830
 C          2.0191397111        0.8705450319       -0.3796979246
 C          1.1758033023       -0.1636899115       -0.7688371844
 H          1.2474014880       -0.5523387457       -1.7721503509
 N          2.9653514859        1.3872694651       -1.2787253833
 S          4.5209654849        1.6576124148       -0.7314681385
 O          4.5752555999        2.8977808225        0.0016701875
 O          5.3545190961        1.5838616172       -1.9106294188
 C          4.8657968231        0.2919691427        0.3642757165
 C          5.1072152945        0.5240972924        1.7027153463
 C          5.3381988444       -0.5561766633        2.5395708336
 C          5.3197906335       -1.8434404752        2.0262334100
 C          5.0790785064       -2.0603288611        0.6779101698
 C          4.8484840270       -0.9842654255       -0.1631542431
 H          4.6650849239       -1.1185437044       -1.2169820450
 H          5.0675039337       -3.0627255012        0.2809210966
 H          5.4952507499       -2.6835653780        2.6795407746
 H          5.5276634287       -0.3905426786        3.5879095571
 H          5.1113914151        1.5406262962        2.0609375735
 H          2.9557951899        0.9508102706       -2.1882313584
 H          2.5953195121        2.2012777516        1.1855710594
 H          0.9401090953        1.2751611577        2.7865919784
 H         -0.5716271579       -0.5438441250        2.0798173629
 H         -0.6583947041       -2.5631803805        0.4807222073
 C         -0.4918789995       -2.3656720201       -1.6408477315
 C          0.5942137291       -3.3813890730       -1.8261000130
 C         -0.8431605767       -3.8027595941       -1.8754485116
 H         -1.2688962518       -4.0799701430       -2.8282194005
 H         -1.2454350833       -4.3584053297       -1.0408608997
 H          1.1566003493       -3.3758886535       -2.7476624143
 H          1.1712350752       -3.6567638740       -0.9565785685
 H         -0.6882276140       -1.6689070097       -2.4474771969
