  62
        -98.94285526
 C          2.0924969804        1.5123959012        0.1165265933
 C          1.7145697351        0.3734572395       -0.6387214166
 C          2.7611419640       -0.6476056474       -0.8199802055
 C          3.9825813438       -0.4515722147       -0.2937912591
 C          5.1184612753       -1.4296747248       -0.3649519675
 C          5.1178053311       -2.3683869353        0.8497508006
 C          3.7574321376       -3.0033396239        1.1386264894
 H          3.0561221249       -2.2225803582        1.4422046754
 H          3.8857910999       -3.6696138209        1.9944271434
 C          3.1619151704       -3.7893713291       -0.0375501490
 H          2.7707624469       -4.7369019409        0.3385785218
 H          3.9454622847       -4.0267881604       -0.7581863946
 C          2.0087062817       -3.0837214378       -0.7536066994
 H          1.2652461039       -2.7598341460       -0.0210721685
 H          1.5294755305       -3.8106933867       -1.4146627445
 C          2.3965415363       -1.8724752984       -1.6109235759
 H          1.5240147716       -1.5914503112       -2.2078722447
 H          3.2046708314       -2.1455763842       -2.2927270902
 H          5.4229190412       -1.7964000266        1.7292415156
 H          5.8593057063       -3.1515201317        0.6809259611
 H          5.0390804925       -2.0068756782       -1.2841072215
 H          6.0547838082       -0.8689883328       -0.3791599989
 O          4.3097207770        0.6567396303        0.4187729309
 C          3.3727514944        1.6464004395        0.6621824149
 O          3.7943898725        2.5841404656        1.3685923697
 H         -1.2968989839        2.4741921709       -0.8760857070
 C         -1.3299344307        2.0423367699        0.1117556809
 C         -0.1926883710        2.0451601316        0.9022102393
 C         -0.2500763369        1.4434041346        2.1559614398
 C         -1.4206234862        0.8654967084        2.6098353512
 C         -2.5563637330        0.8667014357        1.8190638529
 C         -2.5026665747        1.4480790986        0.5593557097
 N         -3.6413795634        1.4353998987       -0.2618148380
 S         -4.5947484102        0.0630301702       -0.2952884727
 O         -5.2554293635        0.0994099642       -1.5817560296
 O         -5.4682892588        0.0578213523        0.8533244882
 C         -3.4834601640       -1.3300159209       -0.2099339957
 C         -3.6299303676       -2.2570194181        0.8021570065
 C         -2.7652899911       -3.3383243038        0.8513345202
 C         -1.7750913297       -3.4735301887       -0.1093238371
 C         -1.6444532321       -2.5358466040       -1.1217458637
 C         -2.5039342335       -1.4516405298       -1.1746886201
 H         -2.4127054281       -0.7066116837       -1.9479745452
 H         -0.8697094878       -2.6337234052       -1.8642546151
 H         -1.0998440539       -4.3139998636       -0.0698003196
 H         -2.8648675550       -4.0695672727        1.6374737606
 H         -4.4142923243       -2.1134116112        1.5277910444
 H         -3.4781276878        1.7897606982       -1.1926356122
 H         -3.4798184695        0.4280955782        2.1604359038
 H         -1.4512622577        0.4077081529        3.5869590565
 H          0.6409999890        1.4302473211        2.7692043857
 C          1.1144406366        2.6325515285        0.4331018761
 H          1.5662206181        3.1711507679        1.2817593352
 C          0.9447703863        3.6535930941       -0.6822949545
 C          2.1159364163        4.0645800187       -1.5225047562
 C          0.9897526403        3.2898076730       -2.1347989292
 H          0.3240641422        3.8066208540       -2.8113370025
 H          1.1557619298        2.2556784844       -2.3912362511
 H          3.0540155423        3.5569884298       -1.3504081325
 H          2.2255391998        5.1077274043       -1.7781834789
 H          0.2553571318        4.4440423511       -0.4001163772
 O          0.5777243795        0.2023960347       -1.1467989324
