  62
        -98.94515489
 C          1.4972153199        0.8384856901       -0.5298325597
 C          2.6054987001        0.9805777703        0.3458850501
 C          3.2801034301       -0.2541557196        0.7621511402
 C          2.8042138501       -1.4360652597        0.3306027205
 C          3.4086758301       -2.7735176096        0.6444823407
 C          4.4395917899       -3.1840484499       -0.4162588994
 C          5.4631043999       -2.0942121699       -0.7348655197
 H          6.1582552698       -2.5055894101       -1.4698009097
 H          4.9514343198       -1.2541144500       -1.2097858698
 C          6.2475609901       -1.5852424597        0.4824378901
 H          6.1644549502       -2.2997729495        1.3021302202
 H          7.3043996900       -1.5190324098        0.2156860099
 C          5.8247514401       -0.1997989296        0.9746299699
 H          5.8135202400        0.4996407502        0.1350310397
 H          6.5773334703        0.1530941205        1.6847561797
 C          4.4640326902       -0.1272502994        1.6794063400
 H          4.4180770104       -0.8787114093        2.4708035702
 H          4.3797320603        0.8612171506        2.1407204999
 H          4.9552302100       -4.0804364798       -0.0668618493
 H          3.9074693398       -3.4345770100       -1.3367785992
 H          3.8771575502       -2.7309963495        1.6260771406
 H          2.6063587101       -3.5132597396        0.6690371610
 O          1.7325888999       -1.5392000499       -0.4904472293
 C          1.0472257099       -0.4177260499       -0.9352487694
 O          0.0884726298       -0.6957376201       -1.6824660492
 H         -1.3204525000        0.5716149802       -0.2661072193
 C         -1.3253377599        1.5061966703        0.2684590905
 C         -0.3181185400        2.4335494503        0.0384131802
 C         -0.3408473599        3.6359593504        0.7339655600
 C         -1.3416373697        3.8956573806        1.6534198801
 C         -2.3179287497        2.9519343206        1.9117488504
 C         -2.3043853298        1.7436132805        1.2208752006
 N         -3.2841705098        0.7748948406        1.4749835610
 S         -2.9578658498       -0.8732954394        1.4882035212
 O         -3.7402105496       -1.3827007492        2.5982421114
 O         -1.5408462498       -1.1393119794        1.5358019211
 C         -3.7048154800       -1.4513409797       -0.0219443785
 C         -2.9444166802       -1.6924870700       -1.1472218786
 C         -3.5813241303       -2.1234955202       -2.3021889184
 C         -4.9548163903       -2.3054695002       -2.3137176382
 C         -5.7046522502       -2.0606761399       -1.1726489581
 C         -5.0761767500       -1.6295995097       -0.0168917583
 H         -5.6169712499       -1.4423381295        0.8958995217
 H         -6.7730063102       -2.2050185799       -1.1814492480
 H         -5.4416505705       -2.6417138803       -3.2156820981
 H         -2.9913243505       -2.3112349504       -3.1852379585
 H         -1.8755254102       -1.5436337700       -1.1235673588
 H         -3.9232279497        1.0165685407        2.2183656610
 H         -3.0845003796        3.1415548908        2.6479710105
 H         -1.3506021097        4.8332220707        2.1884032899
 H          0.4437307201        4.3590728904        0.5669114797
 C          0.7955883099        2.1244977001       -0.9353722299
 H          1.5541126299        2.9126639401       -0.8289522101
 C          0.2835218597        2.1439457798       -2.3612059098
 C          0.0803327996        3.4644812697       -3.0396562000
 C          1.2019900195        2.5668518596       -3.4665062500
 H          1.1293246094        2.0599260094       -4.4167689999
 H          2.2103215396        2.8476097596       -3.1985085902
 H          0.3296117497        4.3563524798       -2.4850236003
 H         -0.7665899905        3.5783734095       -3.6983505599
 H         -0.4217133203        1.3527244598       -2.5770697896
 O          3.0162279701        2.1004159904        0.7561173998
