  62
        -98.93468907
 C          2.6422620025        0.9836484571        0.7149239854
 C          2.9726632311       -0.2566723847        1.3201585072
 C          4.3200274460       -0.7720754506        1.0597325031
 C          5.1685287538       -0.0569991167        0.2994198658
 C          6.5879500628       -0.4278987384       -0.0350471092
 C          6.7194734982       -1.3859601190       -1.2267749160
 C          6.2862791816       -2.8267446670       -0.9532681173
 H          6.7911244533       -3.1931519117       -0.0588830901
 H          6.6335062150       -3.4307438078       -1.7939348734
 C          4.7698302744       -3.0141690102       -0.8044249782
 H          4.4502011926       -3.8790759939       -1.3901701693
 H          4.2520302689       -2.1435734686       -1.2141291642
 C          4.2959162215       -3.2399374076        0.6314486292
 H          4.7007537784       -4.1823906466        1.0069573947
 H          3.2058322849       -3.3203937557        0.6225056891
 C          4.6802046020       -2.1200059333        1.6071810567
 H          5.7453503048       -2.1667515171        1.8331272822
 H          4.1178342944       -2.2635987872        2.5329837214
 H          7.7710434846       -1.3950650991       -1.5228027448
 H          6.1423967370       -0.9846755651       -2.0631176230
 H          7.0675786081       -0.8665170464        0.8404826832
 H          7.1016657001        0.5032435623       -0.2837826584
 O          4.8231552435        1.1350651078       -0.2508635019
 C          3.5507742757        1.6755826147       -0.0875554121
 O          3.3886299279        2.7494786326       -0.6941501281
 O          2.1755156524       -0.8966414202        2.0577476774
 C          1.2428153175        1.5086206181        0.9787786217
 C          0.2728734274        1.0199160421       -0.0676157620
 C          0.5537690014        1.1376853360       -1.4249107787
 C         -0.3537660357        0.6919000527       -2.3688998766
 C         -1.5526664540        0.1190487386       -1.9826702839
 C         -1.8434831267       -0.0039916625       -0.6306387596
 C         -0.9321415131        0.4497139290        0.3158115977
 H         -1.1551217352        0.3404970591        1.3686466974
 N         -3.0513408131       -0.6015279601       -0.2301582603
 S         -4.4486679439       -0.1515655128       -1.0697215092
 O         -4.5217595015       -0.9275249729       -2.2820394417
 O         -4.4814411799        1.2841642958       -1.2348251878
 C         -5.7165266245       -0.6798473956        0.0647407070
 C         -6.0822704951       -2.0126000986        0.0792764406
 C         -7.0525619065       -2.4299861831        0.9762500524
 C         -7.6370469512       -1.5137597192        1.8382808816
 C         -7.2602862330       -0.1794333193        1.8107850583
 C         -6.2893172052        0.2448157476        0.9172578048
 H         -5.9719664780        1.2734647234        0.8547338357
 H         -7.7188565678        0.5308491671        2.4798053169
 H         -8.3935837355       -1.8409617774        2.5339269416
 H         -7.3503485088       -3.4658381712        0.9995396211
 H         -5.6081297633       -2.6864157416       -0.6150486737
 H         -3.1917041618       -0.5492945972        0.7696748080
 H         -2.2680565761       -0.2278293470       -2.7108683806
 H         -0.1256660392        0.7920064831       -3.4198133599
 H          1.4855551706        1.5893827150       -1.7313762894
 H          0.9505440643        1.0458477812        1.9351591820
 C          1.1874623447        3.0170418841        1.1749454605
 C          0.5959226419        3.9644550066        0.1797585617
 C         -0.1210498761        3.6912064448        1.4657218225
 H         -0.1501732106        4.4632718869        2.2194341699
 H         -1.0149801508        3.0875252809        1.4138394531
 H          1.0863493534        4.9161000376        0.0441858648
 H          0.1820746287        3.5589130558       -0.7301031270
 H          2.0515759329        3.3808678839        1.7217599605
