  62
        -98.93816072
 C         -1.7913654026       -1.1237239980        0.3973463197
 C         -2.1232428257       -0.1198833852       -0.5407533207
 C         -3.5550069313        0.0274517741       -0.8649700375
 C         -4.4562494032       -0.7751290559       -0.2684034478
 C         -5.9582406189       -0.8825167867       -0.4321414925
 C         -6.7494025496        0.2198742874       -1.1313199581
 C         -6.7874733986        1.5527750315       -0.3846682541
 H         -7.2922522682        2.2849075809       -1.0187566945
 H         -7.3868136339        1.4272533623        0.5205747159
 C         -5.4307736025        2.1124361724        0.0361343078
 H         -5.6056071424        3.0590655239        0.5547004795
 H         -4.9604097506        1.4363033910        0.7529782451
 C         -4.4516082783        2.3831430534       -1.1046623334
 H         -3.5975781014        2.9221651193       -0.6849359083
 H         -4.9219295972        3.0299771151       -1.8479697989
 C         -3.9019256546        1.1350889177       -1.8173089063
 H         -4.5866111108        0.7831163303       -2.5854235183
 H         -2.9678674326        1.4152844983       -2.3136566179
 H         -6.3842675965        0.3617360592       -2.1441560146
 H         -7.7783033434       -0.1408995858       -1.2135817596
 H         -6.1317038797       -1.8236089363       -0.9656704654
 H         -6.3573418194       -1.0235036731        0.5772899822
 O         -4.0830430053       -1.7356749375        0.6280284075
 C         -2.7618978154       -1.9294481090        0.9886835886
 O         -2.5848684097       -2.8295578888        1.8341546312
 H          2.0686281677       -0.1614943971        0.1510855752
 C          1.5075147966        0.3863682391        0.8891414947
 C          0.2673418963       -0.0702694087        1.3076736686
 C         -0.4256781232        0.6652797372        2.2661515648
 C          0.0980087401        1.8387008834        2.7712506378
 C          1.3261817883        2.3030291322        2.3339908159
 C          2.0337279084        1.5706073520        1.3889984328
 N          3.3034882661        1.9916591155        0.9729437814
 S          3.8552798217        1.7377278664       -0.5841832556
 O          4.9769111282        2.6461924527       -0.7085060689
 O          2.8135453567        1.8844987428       -1.5721115223
 C          4.4768963842        0.0692753301       -0.5769655913
 C          4.2844331193       -0.7202464499       -1.6930870353
 C          4.8145656550       -2.0012450324       -1.7089836984
 C          5.5241661562       -2.4678317750       -0.6130365100
 C          5.7081717268       -1.6619431627        0.5002413770
 C          5.1852456211       -0.3788794487        0.5204611815
 H          5.3103850354        0.2747779558        1.3672522311
 H          6.2584730378       -2.0295024566        1.3512393452
 H          5.9328099010       -3.4658928325       -0.6272124753
 H          4.6713603110       -2.6284475840       -2.5748623803
 H          3.7141748472       -0.3214809388       -2.5174154125
 H          3.5966833395        2.8882742880        1.3319561410
 H          1.7334940547        3.2246899923        2.7210311582
 H         -0.4557469623        2.4017436042        3.5076414185
 H         -1.3885885483        0.3053510442        2.6034269628
 C         -0.3434803767       -1.3500500552        0.7917189402
 H         -0.3677143336       -2.0732188591        1.6206163531
 C          0.4228797058       -1.9633007299       -0.3618269075
 C          1.5696145197       -2.8894642163       -0.0923055931
 C          0.2772567750       -3.4313812813       -0.6228678072
 H          0.2393227990       -3.7711624889       -1.6469000751
 H         -0.3607948382       -3.9902310296        0.0464490306
 H          1.8158387937       -3.0890820757        0.9394803362
 H          2.4239029995       -2.8589272089       -0.7513617426
 H          0.4825652370       -1.3037357120       -1.2209234432
 O         -1.2670807902        0.6207492630       -1.0918022486
