  62
        -98.94547619
 C         -1.7533654191       -1.4387702914        0.2177026596
 C         -1.5392008261       -0.1149511026       -0.2383685752
 C         -2.5498374741        0.8676518693        0.1751472136
 C         -3.5757833837        0.4882474530        0.9579062724
 C         -4.6709086889        1.3801128345        1.4771070351
 C         -5.8235261162        1.5956131459        0.4866788578
 C         -5.4996009934        2.5021501485       -0.7015330365
 H         -6.4470935201        2.7422904089       -1.1881816487
 H         -5.0749556167        3.4381504066       -0.3374685145
 C         -4.5575395348        1.8748243617       -1.7385670993
 H         -4.5279654549        0.7921668036       -1.5953609541
 H         -4.9509037246        2.0534141392       -2.7419879121
 C         -3.1286818536        2.4174206590       -1.7078212135
 H         -3.1340093781        3.4750878326       -1.9803221188
 H         -2.5431019202        1.8787415024       -2.4569728852
 C         -2.4227838030        2.2639767213       -0.3541268678
 H         -1.3582450748        2.4611911493       -0.4972139359
 H         -2.8239480498        2.9804396351        0.3620925698
 H         -6.1578626543        0.6215859777        0.1218332177
 H         -6.6509692108        2.0430204629        1.0422940058
 H         -5.0709805748        0.8936859983        2.3693410793
 H         -4.2528507555        2.3448424879        1.7655009037
 O         -3.7278577004       -0.7896435046        1.3984719779
 C         -2.8323562002       -1.7808598650        1.0340390021
 O         -3.0970528861       -2.9087631226        1.4977812259
 H          1.5071937005       -1.7379502384       -1.4730448651
 C          1.6262019609       -1.7599588569       -0.4017716477
 C          0.5777553239       -2.1718534693        0.4036120817
 C          0.7583880265       -2.1742243611        1.7842841677
 C          1.9592948248       -1.7778235959        2.3407849342
 C          3.0018678131       -1.3562267903        1.5332051663
 C          2.8267929685       -1.3397375227        0.1565960266
 N          3.8721848331       -0.8961652838       -0.6753009989
 S          4.5868951783        0.5764650784       -0.3246974220
 O          5.2651749106        0.9615561656       -1.5420106830
 O          5.4192503099        0.4333251251        0.8439907267
 C          3.2467156510        1.7017083279        0.0159204897
 C          2.9106749814        1.9918837175        1.3222580372
 C          1.8475586856        2.8464582976        1.5643689197
 C          1.1451082555        3.3940221148        0.5026466435
 C          1.4946175379        3.0913476765       -0.8041561897
 C          2.5520116544        2.2328484513       -1.0519620719
 H          2.8565705736        1.9803900883       -2.0549049288
 H          0.9441027183        3.5151997162       -1.6288512350
 H          0.3202628597        4.0623248093        0.6957082724
 H          1.5697166040        3.0819224198        2.5793603813
 H          3.4881034462        1.5559815330        2.1208038321
 H          3.6409727826       -0.9378239652       -1.6577051990
 H          3.9434888470       -1.0362479568        1.9488087063
 H          2.0859811545       -1.7918505510        3.4128089059
 H         -0.0637628004       -2.4847185957        2.4150744991
 C         -0.7759310838       -2.5435732922       -0.1484597537
 H         -1.1253015281       -3.4457624894        0.3715776213
 C         -0.7888722295       -2.8035460925       -1.6399534108
 C         -0.2314600975       -4.0876959950       -2.1744487079
 C         -1.7106958702       -3.8478433288       -2.1904056494
 H         -2.1933279704       -3.6615449971       -3.1382331400
 H         -2.3266199928       -4.3897029129       -1.4874801992
 H          0.1597695283       -4.7962237892       -1.4601279459
 H          0.3010108924       -4.0707274591       -3.1133736609
 H         -0.6543203317       -1.9041466848       -2.2291559319
 O         -0.5649640262        0.2347221831       -0.9529246774
