  62
        -98.93692576
 C         -1.4393060686       -1.5062424459        0.1513605159
 C         -2.5697273956       -1.0715251954        0.8818608873
 C         -3.3187481014        0.0822557464        0.3447282148
 C         -2.8590776421        0.6872752743       -0.7661864854
 C         -3.4221026672        1.8949506219       -1.4682316007
 C         -3.1214390360        3.2131043888       -0.7352255162
 C         -3.2883516008        3.1626571786        0.7811386555
 H         -2.9210935825        4.1085698346        1.1884983000
 H         -2.6569671957        2.3695307555        1.1864850188
 C         -4.7217043823        2.9693599712        1.2697725344
 H         -5.3390703459        3.7925422436        0.9030744763
 H         -4.7050570063        3.0286108920        2.3612237626
 C         -5.3868653834        1.6497158648        0.8750016263
 H         -5.7001885714        1.6652928548       -0.1653628777
 H         -6.2985365928        1.5533981611        1.4720072532
 C         -4.5494100492        0.4061080714        1.1572254660
 H         -5.1976098011       -0.4751311095        1.0741054578
 H         -4.2241206720        0.4234595058        2.2039112030
 H         -3.7650394207        3.9920185637       -1.1474133300
 H         -2.0851520308        3.4911382676       -0.9414929501
 H         -4.4911901934        1.7712670631       -1.6154719285
 H         -2.9548075002        1.9299130110       -2.4546729236
 O         -1.7325608264        0.2679137909       -1.4076045025
 C         -0.9983102951       -0.8288711087       -0.9872744833
 O         -0.0070564547       -1.0772116534       -1.6941400055
 O         -2.9423245716       -1.6180210959        1.9562799927
 C         -0.6491576285       -2.6829530753        0.6959696361
 C          0.8210578756       -2.3461434585        0.6898380590
 C          1.7925087522       -3.1127904339        0.0618816542
 C          3.1172093416       -2.7095150781        0.0689120247
 C          3.5010882157       -1.5378681382        0.6935048409
 C          2.5358934358       -0.7630026524        1.3242628054
 C          1.2144742668       -1.1763211957        1.3296468231
 H          0.4640592778       -0.5667871670        1.8194483606
 N          2.9092714085        0.4483155982        1.9434586450
 S          3.6818106536        1.5733390373        0.9681139192
 O          5.0451681297        1.1547357868        0.7601741507
 O          3.5032407477        2.8403780598        1.6425280067
 C          2.7932368978        1.5592557515       -0.5760609954
 C          1.5942969929        2.2398673301       -0.6469572411
 C          0.8728608852        2.2019382423       -1.8277256080
 C          1.3509037363        1.4753218787       -2.9061252001
 C          2.5538026633        0.7946481768       -2.8172780753
 C          3.2851827822        0.8348840636       -1.6419738642
 H          4.2266622485        0.3218044237       -1.5346162551
 H          2.9174679048        0.2234462838       -3.6559157723
 H          0.7763019199        1.4331001069       -3.8176652691
 H         -0.0680154333        2.7238792822       -1.9011003342
 H          1.2534662880        2.7949604556        0.2134484881
 H          2.1441374131        0.8952449561        2.4287421127
 H          4.5252903692       -1.2013876760        0.6937078997
 H          3.8607725860       -3.3135322858       -0.4284175235
 H          1.5117603367       -4.0142890659       -0.4568301853
 H         -0.9741784355       -2.7679093827        1.7470077388
 C         -0.9704911451       -4.0156554931        0.0370638529
 C         -2.2976865063       -4.2542537498       -0.6171370241
 C         -1.0561778633       -4.1708125085       -1.4507702325
 H         -0.6769450964       -5.0802349768       -1.8935689249
 H         -0.8961224291       -3.2906574175       -2.0529327906
 H         -2.7683867303       -5.2170125289       -0.4847740024
 H         -2.9948907442       -3.4296708462       -0.6525500697
 H         -0.5550045741       -4.8518655765        0.5911418728
