  62
        -98.94252964
 C         -1.5260965113       -1.3977137382        0.2766249498
 C         -2.0025741204       -0.8954515679       -0.9592366504
 C         -2.8764582988        0.2851332433       -0.8722838709
 C         -3.1945766983        0.7879266741        0.3343491789
 C         -4.0148268566        2.0248403154        0.5576797984
 C         -3.1220768649        3.2703388841        0.6497555581
 C         -2.0893542946        3.3741501924       -0.4728962918
 H         -1.5293006534        4.2989786016       -0.3180314521
 H         -1.3777406258        2.5494858414       -0.3818551215
 C         -2.6906237644        3.3755185727       -1.8858279919
 H         -3.7516189341        3.6229819042       -1.8358732721
 H         -2.2033251333        4.1568772818       -2.4731303621
 C         -2.5153322062        2.0659090822       -2.6573510214
 H         -1.4630624166        1.7683005808       -2.6429195412
 H         -2.7856923058        2.2482957122       -3.7009156515
 C         -3.3571168779        0.8815969235       -2.1650409712
 H         -4.4046521275        1.1797327050       -2.0908386414
 H         -3.2779656489        0.0854439332       -2.9113173709
 H         -3.7601879837        4.1556698950        0.6411226777
 H         -2.5917908250        3.2423216337        1.6037616282
 H         -4.7283777063        2.1344007061       -0.2565321017
 H         -4.5623532569        1.9110033064        1.4946162584
 O         -2.7570539491        0.2485801539        1.4997079191
 C         -1.9061388507       -0.8451930572        1.5006623796
 O         -1.5657643513       -1.2306130373        2.6357380897
 H          0.3980964005       -0.1769881311       -0.6013868104
 C          1.1194933894       -0.9788935621       -0.6910129400
 C          0.7775178976       -2.2604534815       -0.2880822196
 C          1.7368845162       -3.2621128729       -0.4124000892
 C          2.9954639567       -2.9846907348       -0.9142617692
 C          3.3283513085       -1.7023868354       -1.3166148395
 C          2.3749723498       -0.7024483441       -1.2146132900
 N          2.7190313217        0.6185874253       -1.6042014104
 S          3.5227413328        1.4693340346       -0.4037473306
 O          3.6934862847        2.8133105142       -0.9051950710
 O          4.7223688617        0.7478999331       -0.0679419602
 C          2.3883498526        1.4668756867        0.9719726993
 C          1.4825638340        2.5017344079        1.0900259189
 C          0.5317508138        2.4480750696        2.0965142288
 C          0.4902830122        1.3562534899        2.9496172391
 C          1.4035199308        0.3222788586        2.8139899196
 C          2.3634586610        0.3741878670        1.8162518497
 H          3.0918516999       -0.4093100941        1.6813878300
 H          1.3504234396       -0.5302516811        3.4714362198
 H         -0.2658578879        1.2956474112        3.7164678491
 H         -0.1775003351        3.2529405206        2.2070715084
 H          1.5442039652        3.3301843376        0.4020270686
 H          1.9177049725        1.1610400264       -1.8969068807
 H          4.3072073689       -1.4592287769       -1.6956331895
 H          3.7267740056       -3.7742570558       -0.9932124188
 H          1.4919113948       -4.2664139125       -0.1054958289
 C         -0.5702976629       -2.5700579195        0.3248342903
 H         -0.4052224533       -2.7774150994        1.3927668204
 C         -1.1921962345       -3.8019702788       -0.3120499494
 C         -1.0121620465       -5.1567197189        0.3018614111
 C         -2.3416199555       -4.4705035570        0.3791017107
 H         -3.1584220660       -4.8442061261       -0.2197174592
 H         -2.6497582851       -4.0623269363        1.3311844806
 H         -0.9124271576       -6.0090001792       -0.3531556286
 H         -0.4370747567       -5.2276723494        1.2131286712
 H         -1.2358053543       -3.7342573191       -1.3925598294
 O         -1.7042008810       -1.3867021987       -2.0794112202
