  62
        -98.93742635
 C          0.9801481396        1.5169980704        0.5822996004
 C          1.6620698398        1.1206391206       -0.5904006396
 C          2.7102708298        0.0912135606       -0.4259441696
 C          2.9240534397       -0.4378904096        0.7913726304
 C          3.9677127396       -1.4407419996        1.2147509704
 C          5.3895953297       -1.1995395095        0.6833391306
 C          5.8339997899       -2.2369041494       -0.3491214094
 H          6.9256174699       -2.2725444993       -0.3615789993
 H          5.4811290498       -3.2198927994       -0.0302029896
 C          5.3651118200       -1.9701982192       -1.7785562595
 H          5.9197364001       -1.1228016791       -2.1875449793
 H          5.6228471201       -2.8457325391       -2.3792231095
 C          3.8691534400       -1.6896070992       -1.9381718896
 H          3.5979163902       -1.9224947891       -2.9703033897
 H          3.2868778700       -2.3526394493       -1.3004575798
 C          3.4843962600       -0.2263022593       -1.6766757695
 H          4.3799016700        0.4022805508       -1.7010448193
 H          2.8484092601        0.1362780008       -2.4909211896
 H          6.0767125496       -1.2499428896        1.5295029907
 H          5.4646268497       -0.1959795994        0.2670663107
 H          3.9674874095       -1.4061648897        2.3063611404
 H          3.6407171597       -2.4447206096        0.9359264302
 O          2.1551419695       -0.1086221597        1.8696151303
 C          1.1808945295        0.8650768303        1.7992346703
 O          0.5676149293        1.0614009001        2.8687079103
 H         -1.8464434605        0.9732810502        1.5136495299
 C         -2.1087063904        1.2831693703        0.5094611799
 C         -1.2794043003        2.1802389104       -0.1543888998
 C         -1.6115825901        2.5602526706       -1.4475219798
 C         -2.7456561401        2.0502814006       -2.0577884300
 C         -3.5730500401        1.1637867405       -1.3923989403
 C         -3.2481183103        0.7798350304       -0.0976112503
 N         -4.0828444503       -0.1406490798        0.5806940495
 S         -4.0163945802       -1.7092794997       -0.0017331407
 O         -4.4692856300       -1.7143655695       -1.3681890207
 O         -4.7744564803       -2.5111870298        0.9304391392
 C         -2.2891448502       -2.1456633896        0.0792313595
 C         -1.8307661103       -2.8447090398        1.1777036595
 C         -0.4790528203       -3.1309277297        1.2732251896
 C          0.3857006798       -2.7003150896        0.2797732498
 C         -0.0858792401       -1.9860214695       -0.8100721902
 C         -1.4382559901       -1.7046559495       -0.9148360803
 H         -1.8389328300       -1.1570559794       -1.7524203603
 H          0.5940767000       -1.6366246594       -1.5708752300
 H          1.4379198698       -2.9214700396        0.3570515999
 H         -0.1024778204       -3.6803871898        2.1210658996
 H         -2.5399043404       -3.1604102499        1.9262527994
 H         -3.9125330805       -0.1599277099        1.5772619095
 H         -4.4505883000        0.7470273505       -1.8590198704
 H         -2.9892430999        2.3495719707       -3.0659018800
 H         -0.9728115801        3.2414708706       -1.9841936397
 C         -0.0377013304        2.6471487504        0.5631104304
 H         -0.3077136405        2.8190463802        1.6142689604
 C          0.5548749096        3.9219972405        0.0016902206
 C         -0.1309045404        5.2272376004        0.2669299807
 C          1.1707582895        4.9138794704        0.9400963708
 H          2.0570936995        5.4422976904        0.6224687010
 H          1.1581504394        4.6801543902        1.9949921408
 H         -0.1396262304        5.9740729405       -0.5120343792
 H         -1.0292914705        5.2057702303        0.8652929105
 H          1.0359796798        3.7855380106       -0.9583356094
 O          1.4328900999        1.6075760807       -1.7275102396
