  62
        -98.93457305
 C          2.6230080206        0.9700998940        0.6862981584
 C          3.0143695827       -0.2402254438        1.3154382707
 C          4.3888800188       -0.6884715090        1.0724275010
 C          5.2034789009        0.0562908158        0.3035633996
 C          6.6449990955       -0.2404584264       -0.0099389167
 C          6.8443177542       -1.2149514255       -1.1785823945
 C          6.4915505559       -2.6717555569       -0.8762731503
 H          6.8821676514       -3.2737663524       -1.6991327848
 H          7.0065245840       -2.9881068273        0.0313640383
 C          4.9867123680       -2.9421724009       -0.7380328280
 H          4.4249321323       -2.1116194247       -1.1721430711
 H          4.7233454989       -3.8365340458       -1.3073048098
 C          4.5104362092       -3.1631493702        0.6977863787
 H          3.4269744247       -3.3067167402        0.6797958055
 H          4.9645189484       -4.0722044299        1.0984799802
 C          4.8187443216       -2.0020664116        1.6521844599
 H          4.2550883631       -2.1578149160        2.5752473398
 H          5.8822369516       -1.9828998653        1.8898550356
 H          6.2543023372       -0.8661118636       -2.0292901031
 H          7.8978399759       -1.1697442889       -1.4641649637
 H          7.1072999171        0.7130759652       -0.2743308240
 H          7.1394962529       -0.6317691829        0.8796755111
 O          4.7975544332        1.2152516342       -0.2752249674
 C          3.4980125347        1.6919829239       -0.1272820406
 O          3.2832056900        2.7428616137       -0.7571625550
 O          2.2476380985       -0.9072665975        2.0613678793
 C          1.2011160945        1.4335285788        0.9438858757
 C          0.2445154078        0.8985339434       -0.0921309586
 C          0.5328262370        0.9679562776       -1.4508616804
 C         -0.3692065397        0.4887612486       -2.3840470299
 C         -1.5725770792       -0.0650647501       -1.9849707528
 C         -1.8725371926       -0.1364257380       -0.6311789527
 C         -0.9640540795        0.3441652177        0.3042137881
 H         -1.1935953149        0.2721936011        1.3588627828
 N         -3.0910300737       -0.7044523639       -0.2207876019
 S         -4.4713615983       -0.2436486613       -1.0841765760
 O         -4.5818516703       -1.0861867573       -2.2483264213
 O         -4.4392459516        1.1795241080       -1.3340013491
 C         -5.7595762853       -0.6429750516        0.0800107029
 C         -6.2380108335       -1.9384389981        0.1318319571
 C         -7.2231938109       -2.2508743246        1.0550729454
 C         -7.7096268927       -1.2694746282        1.9060684081
 C         -7.2200249213        0.0264819138        1.8413232690
 C         -6.2341822936        0.3458868654        0.9210428142
 H         -5.8320821168        1.3421905139        0.8284961650
 H         -7.6022470426        0.7879301648        2.5020075083
 H         -8.4775241487       -1.5150288414        2.6225521176
 H         -7.6087143622       -3.2562682677        1.1071979558
 H         -5.8369961348       -2.6653148320       -0.5550251339
 H         -3.2356335900       -0.6247630321        0.7765886179
 H         -2.2862623616       -0.4345342906       -2.7038877367
 H         -0.1337797077        0.5499883962       -3.4363129178
 H          1.4647479117        1.4112553367       -1.7687167413
 H          0.9302738710        0.9700415926        1.9062838644
 C          1.0817732217        2.9409261970        1.1222176524
 C          0.4761813876        3.8517599897        0.1017928525
 C         -0.2556652792        3.5710643811        1.3777333964
 H         -0.3261140982        4.3522778096        2.1192068096
 H         -1.1273436982        2.9366577728        1.3169348061
 H          0.9342504941        4.8184651262       -0.0398993793
 H          0.0965973260        3.4168831216       -0.8095905073
 H          1.9208474252        3.3438973683        1.6806352039
