  62
        -98.93859383
 C         -2.7641841489       -0.5249503194       -0.3800012601
 C         -3.0703926084        0.3744716905        0.6743072601
 C         -2.9693212380        1.8030182806        0.3653529303
 C         -2.6113921480        2.1906627706       -0.8717080697
 C         -2.4495529575        3.6090414406       -1.3451907695
 C         -1.0785050873        4.2124875601       -1.0094796196
 C         -0.8731540170        4.5790390998        0.4609425505
 H          0.0194571233        5.2054781995        0.5126252004
 H         -1.7151527367        5.1788634301        0.8087500206
 C         -0.6776505173        3.3732094596        1.3910871903
 H          0.1585516528        3.5661950392        2.0680140302
 H         -0.3970681977        2.4952866296        0.8019072201
 C         -1.8900039973        3.0356065799        2.2601845803
 H         -1.6552953276        2.1331641997        2.8311355102
 H         -2.0667954670        3.8477591699        2.9694543805
 C         -3.1859030075        2.7813748005        1.4794302204
 H         -3.9176865676        2.3471096806        2.1652148905
 H         -3.5815725972        3.7194417807        1.0907435206
 H         -0.3008112175        3.5072563499       -1.3141520198
 H         -0.9644729270        5.1189616501       -1.6087368195
 H         -3.2382916672        4.2319366608       -0.9223976093
 H         -2.5626195176        3.5903888708       -2.4312594495
 O         -2.3604289184        1.3022514807       -1.8665607899
 C         -2.3778216788       -0.0697605694       -1.6407207501
 O         -2.0464032192       -0.7387922693       -2.6385952902
 O         -3.4150310184       -0.0080874295        1.8247697101
 C         -2.7542190193       -2.0009185695       -0.0163020303
 C         -1.4016001094       -2.3237361000        0.5678546395
 C         -1.2603908895       -2.9379158903        1.8055381594
 C         -0.0058337195       -3.1254072708        2.3620607892
 C          1.1305505106       -2.6935761011        1.7013102992
 C          0.9975853707       -2.0936493109        0.4578289393
 C         -0.2550010393       -1.9232015503       -0.1050501206
 H         -0.3438657693       -1.4389012002       -1.0679178905
 N          2.1552268908       -1.5829558612       -0.1972541208
 S          2.4421167014        0.0204636687        0.2805556594
 O          2.2962667616        0.0947422785        1.7118968995
 O          1.6265126916        0.9259382691       -0.5025133903
 C          4.1589956714        0.1967223881       -0.1639274407
 C          5.1016346813       -0.4144826623        0.6402128391
 C          6.4384975513       -0.3326068027        0.2864967790
 C          6.8081504114        0.3530704373       -0.8613671710
 C          5.8504824515        0.9613520877       -1.6581813108
 C          4.5107721915        0.8816865582       -1.3099732807
 H          3.7325060116        1.3422380085       -1.8974766005
 H          6.1400414116        1.4950104978       -2.5491686107
 H          7.8492447214        0.4148656470       -1.1362238411
 H          7.1862397412       -0.8036500731        0.9038796388
 H          4.7662060412       -0.9299192723        1.5246641491
 H          2.0169490307       -1.5602752410       -1.2008021107
 H          2.1096209206       -2.7963075415        2.1389907091
 H          0.0847437705       -3.5944131709        3.3299196992
 H         -2.1445357495       -3.2401433600        2.3475845195
 H         -3.4962346193       -2.1027998193        0.7914805398
 C         -3.1702921398       -2.9306559292       -1.1443874404
 C         -2.2213872602       -3.8574768694       -1.8377984106
 C         -3.2476958803       -4.4084569492       -0.8969530706
 H         -4.0830227605       -4.9579932988       -1.3029462006
 H         -2.9020323603       -4.7683286794        0.0604402093
 H         -2.3522874904       -4.0016532192       -2.8992449006
 H         -1.1890591002       -3.8603348798       -1.5243302107
 H         -3.9503976897       -2.4964267888       -1.7604093002
