  62
        -98.93694751
 C         -1.8226027506       -0.5148751807        1.1006438499
 C         -3.0568994607       -0.9908415505        0.5912731700
 C         -4.0954493309        0.0323368096        0.3730401211
 C         -3.8281159410        1.3233257394        0.6349958620
 C         -4.7728402212        2.4643354295        0.3946515531
 C         -4.5841870617        3.0563058706       -1.0091444865
 C         -4.5650467120        2.0101617214       -2.1237453973
 H         -4.4570107123        2.5448571821       -3.0700282269
 H         -3.6787443718        1.3817219114       -2.0084572280
 C         -5.8138548319        1.1191659613       -2.1797261475
 H         -6.6284295917        1.5874203608       -1.6258687969
 H         -6.1366746922        1.0336433220       -3.2195379775
 C         -5.6011743315       -0.3041455591       -1.6608788587
 H         -4.7291183017       -0.7456543486       -2.1499883693
 H         -6.4713857116       -0.9025297990       -1.9438431888
 C         -5.4248773910       -0.4421040102       -0.1434202588
 H         -6.2422038609        0.0689343693        0.3695269918
 H         -5.4782798208       -1.5074587404        0.0997482204
 H         -5.3879784519        3.7715140906       -1.1932586957
 H         -3.6356298618        3.5978269207       -1.0327725664
 H         -5.7959731911        2.1145574593        0.5181499132
 H         -4.5719232810        3.2396233790        1.1359863136
 O         -2.6282406609        1.7446956492        1.1090656519
 C         -1.6031302707        0.8439342591        1.3442545009
 O         -0.5552197506        1.3659553889        1.7717351609
 O         -3.3030246807       -2.1939029803        0.3237269892
 C         -0.6338590304       -1.4168621108        1.3928381989
 C          0.2724380992       -1.5129767898        0.1911970385
 C         -0.2457199512       -1.6973952689       -1.0864796315
 C          0.5921623785       -1.7579536080       -2.1853763418
 C          1.9630602385       -1.6456267679       -2.0326779622
 C          2.4919246589       -1.4681554888       -0.7617593822
 C          1.6477434593       -1.4012983197        0.3406946981
 H          2.0656455596       -1.2407255904        1.3256165081
 N          3.8921159589       -1.3584601588       -0.6182719726
 S          4.6179839186        0.0449340717       -1.1803481318
 O          4.0724096481        0.3599036326       -2.4746637514
 O          6.0418135986       -0.1887629581       -1.1168056724
 C          4.1642441388        1.2837757608        0.0203568093
 C          2.8458787188        1.6907812006        0.0829292500
 C          2.4614405390        2.5693020398        1.0836229108
 C          3.4036512993        3.0363032092        1.9878533408
 C          4.7271844093        2.6304324995        1.9029158201
 C          5.1117869991        1.7346699802        0.9183353693
 H          6.1246126191        1.3773649104        0.8245202187
 H          5.4553138595        2.9992551290        2.6074604501
 H          3.0982254395        3.7176501286        2.7663297215
 H          1.4236533590        2.8497746796        1.1702726514
 H          2.1353146486        1.3155141211       -0.6366121300
 H          4.2164904393       -1.5412642194        0.3215400672
 H          2.6283596682       -1.6755821572       -2.8796803824
 H          0.1743005981       -1.8984143273       -3.1709467818
 H         -1.3137823812       -1.7981523789       -1.2088263312
 H         -0.0681988602       -0.9037685013        2.1872322191
 C         -1.0326827501       -2.7831740512        1.9337426080
 C         -0.9257519802       -4.0462882106        1.1395404470
 C          0.0210484202       -3.7960026414        2.2721891869
 H         -0.0890554495       -4.3720509721        3.1784094365
 H          1.0436829001       -3.5577032311        2.0212808667
 H         -1.7067649000       -4.7808555108        1.2611477867
 H         -0.5445705605       -3.9839594198        0.1322076769
 H         -1.8753707498       -2.7157167018        2.6136937283
