  62
        -98.93552004
 C         -1.4330102394       -1.0974186268        0.6974858256
 C         -2.4003562701       -1.1545668159       -0.3357327850
 C         -3.6741896684       -0.4718171258       -0.0546331205
 C         -3.8490837479        0.1509142126        1.1241201191
 C         -5.0734024358        0.9274860014        1.5123860562
 C         -4.9372982330        2.4082424450        1.1313087843
 C         -4.4801777617        2.6370321559       -0.3095916706
 H         -4.4512453507        3.7166796193       -0.4731540704
 H         -3.4567068606        2.2703374474       -0.4215677177
 C         -5.3741590867        1.9818900601       -1.3718602416
 H         -6.3457326904        1.7400167023       -0.9394191236
 H         -5.5465808198        2.7014838082       -2.1749605488
 C         -4.7792742838        0.7283813783       -2.0161024235
 H         -3.7658667177        0.9421035412       -2.3656034495
 H         -5.3825128609        0.4785612439       -2.8929116469
 C         -4.7283518984       -0.5187471554       -1.1248593137
 H         -5.7127505866       -0.7001139498       -0.6888745027
 H         -4.4700709032       -1.3702809790       -1.7609380270
 H         -5.9007587897        2.8959369108        1.2910090040
 H         -4.2067323260        2.8723473514        1.7983825369
 H         -5.9427604846        0.4940769387        1.0217082606
 H         -5.2010869962        0.8506142431        2.5935214172
 O         -2.8971220589        0.1817786329        2.0928816833
 C         -1.6698253092       -0.4281983086        1.8996442442
 O         -0.8834853401       -0.3148250990        2.8635436726
 H          0.9862666884        0.6304143824        0.3669574527
 C          1.1047585570        0.1052930887       -0.5699290029
 C          0.5973030959       -1.1851667627       -0.6983270222
 C          0.7049286807       -1.8021719822       -1.9384604931
 C          1.3196088410       -1.1527725636       -2.9962122201
 C          1.8588201783        0.1109925368       -2.8469939529
 C          1.7411709212        0.7492903939       -1.6180795906
 N          2.2774257622        2.0301965651       -1.4093487075
 S          3.0040039875        2.3591654504        0.0616968568
 O          2.0070754300        2.6886052623        1.0493687449
 O          3.9620752074        3.4032210925       -0.2359761614
 C          3.8559938300        0.8531992754        0.4995304719
 C          4.8769883698        0.4272396667       -0.3278870275
 C          5.5208390349       -0.7648008519       -0.0404336775
 C          5.1319255779       -1.5100126001        1.0624065108
 C          4.1117590083       -1.0647600488        1.8882208096
 C          3.4654550458        0.1287851848        1.6069183261
 H          2.6625244318        0.5014727546        2.2244122598
 H          3.8071464126       -1.6427624835        2.7461247026
 H          5.6267014855       -2.4427720932        1.2820925114
 H          6.3183421991       -1.1112892682       -0.6775808458
 H          5.1571641233        1.0361112085       -1.1719923679
 H          2.8112600208        2.3966843120       -2.1838481250
 H          2.3491863212        0.6062914547       -3.6708875834
 H          1.3848772104       -1.6479773786       -3.9531083147
 H          0.2825675478       -2.7753944817       -2.1071968512
 C         -0.0584040049       -1.7387546124        0.5430983605
 H          0.5228212563       -1.3425670728        1.3912243595
 C         -0.1347842387       -3.2388994059        0.7892065011
 C         -0.6940391760       -4.2566124160       -0.1562515214
 C          0.7724767498       -4.2517614901        0.1588025915
 H          1.1566448751       -5.0428013731        0.7855550076
 H          1.4659680962       -3.9135304611       -0.5938089882
 H         -1.3033235300       -5.0431569807        0.2666722987
 H         -1.0461639999       -3.9208630948       -1.1173921851
 H         -0.3761239339       -3.4070138703        1.8369087940
 O         -2.2274493246       -1.7387924734       -1.4339134915
