  62
        -98.94947391
 C         -1.0566004194       -1.7359859840        0.1120382991
 C         -1.6896661140       -0.9607367893        1.1121247412
 C         -2.8393161965       -0.1612986632        0.6746243674
 C         -3.2177871134       -0.1901125102       -0.6161590399
 C         -4.3686988664        0.5697201579       -1.2175433272
 C         -4.0307799366        2.0240137066       -1.5743216216
 C         -3.9284295917        2.9797102603       -0.3847583816
 H         -3.9335018809        3.9937502078       -0.7896627898
 H         -4.8130109887        2.8740984384        0.2449580456
 C         -2.6618052017        2.7992345866        0.4632028863
 H         -2.2320229303        3.7796245090        0.6852314235
 H         -1.9117075985        2.2583271028       -0.1199658039
 C         -2.8883242020        2.0927638214        1.8001393104
 H         -1.9220384234        1.9870176832        2.2991868753
 H         -3.5252307255        2.7143579688        2.4340637760
 C         -3.5268199292        0.7022353454        1.6900549804
 H         -3.4330493441        0.2070768160        2.6601060321
 H         -4.5852438053        0.7960243409        1.4471559712
 H         -4.8172411928        2.3880214613       -2.2399872215
 H         -3.0891369093        2.0395482392       -2.1296164537
 H         -4.6412427135        0.0438693834       -2.1352319234
 H         -5.2216424180        0.5483694508       -0.5380020645
 O         -2.5908610111       -0.9565896164       -1.5471617127
 C         -1.4898737804       -1.7338013416       -1.2146998703
 O         -1.0040941265       -2.3690550029       -2.1702295480
 H          0.5937578618       -0.1608745153       -0.6854086131
 C          1.4589961060       -0.7990962801       -0.7526721529
 C          1.4022284817       -2.0877208619       -0.2456343591
 C          2.5221969053       -2.9005056373       -0.3902766090
 C          3.6529561439       -2.4279388698       -1.0325259903
 C          3.7041381435       -1.1376721034       -1.5301970910
 C          2.5906817188       -0.3177685479       -1.3917205632
 N          2.5831302025        0.9912518066       -1.8908914167
 S          1.6672001525        2.1823398511       -1.1640558124
 O          0.2642904481        1.9788908429       -1.4251912321
 O          2.2307185325        3.4150364463       -1.6722515527
 C          2.0237316091        2.0326977771        0.5767293910
 C          1.0773693490        1.5332433416        1.4460906692
 C          1.4090627321        1.3652168522        2.7809161496
 C          2.6770413288        1.7062300566        3.2239398786
 C          3.6150826121        2.2222318062        2.3415858605
 C          3.2903010334        2.3823350162        1.0048392679
 H          3.9896216901        2.7855834109        0.2905969181
 H          4.5982777498        2.4931969811        2.6910187625
 H          2.9332586126        1.5705605711        4.2628007741
 H          0.6725141414        0.9510488100        3.4518364696
 H          0.0974330948        1.2736792056        1.0786966365
 H          3.4672945250        1.3341241453       -2.2340651771
 H          4.5870597769       -0.7718080285       -2.0310218847
 H          4.5115895379       -3.0724287031       -1.1435726132
 H          2.5038485734       -3.9071666148       -0.0052452197
 C          0.1632867073       -2.5532207015        0.4846764083
 H          0.3198340885       -2.3678782854        1.5591120551
 C         -0.1002145640       -4.0339446431        0.2838447451
 C          0.4421758722       -5.0467576871        1.2464683599
 C         -1.0236847168       -4.7383175161        1.2312523667
 H         -1.7071878264       -5.4738290375        0.8344716553
 H         -1.4329584971       -4.1571345801        2.0448581641
 H          0.7670172203       -6.0010904801        0.8599547268
 H          1.0208078122       -4.6860678550        2.0835734835
 H         -0.1607905760       -4.3037715334       -0.7644375222
 O         -1.3118292506       -0.9372324436        2.3150607580
