  62
        -98.93707557
 C         -2.5446096148        0.0268353332        0.1617710502
 C         -2.2998248949        1.1245006665        1.0212574476
 C         -1.7271424981        2.3399800571        0.4183897268
 C         -1.4712958143        2.3590187847       -0.9026712029
 C         -0.9207719935        3.4455215757       -1.8035579561
 C         -0.3248266048        4.7185466830       -1.2106907187
 C          1.0102877399        4.5172184244       -0.4916301566
 H          1.7813957163        4.3343204708       -1.2440758050
 H          1.2648270597        5.4419939006        0.0306389263
 C          1.0627783482        3.3567260656        0.4995161158
 H          2.0836358723        3.2877832968        0.8875777285
 H          0.8651945428        2.4127301660       -0.0144980794
 C          0.1275120478        3.4728365580        1.7012070719
 H          0.3446943217        2.6251636849        2.3585132789
 H          0.3444765272        4.3917491655        2.2508732413
 C         -1.3743433712        3.4400522295        1.3778978596
 H         -1.9136582242        3.2226617249        2.3049619613
 H         -1.7203708518        4.4048040888        1.0152518641
 H         -1.0476040922        5.2002593878       -0.5586300664
 H         -0.1486830742        5.4008878643       -2.0466589654
 H         -0.1694006842        2.9542101917       -2.4302334018
 H         -1.7459754335        3.7230091479       -2.4689788389
 O         -1.7526649710        1.2883283645       -1.6990983881
 C         -2.2057368374        0.0831730460       -1.1907268575
 O         -2.2821341519       -0.8218187135       -2.0431422258
 H         -0.3622248703       -1.0248731524        1.1612035643
 C         -0.5800277128       -1.9615255898        0.6670424557
 C         -1.9020539924       -2.3118078162        0.4208000343
 C         -2.1622467403       -3.5250822517       -0.1993236542
 C         -1.1149836224       -4.3425367636       -0.5920998905
 C          0.1997580421       -3.9588110835       -0.4033089948
 C          0.4682768662       -2.7497081947        0.2301719857
 N          1.7857486896       -2.3026851200        0.4418169392
 S          2.0432808459       -0.6304088196        0.3551428867
 O          1.7770168561       -0.0614410863        1.6528433135
 O          1.3265998950       -0.0622617216       -0.7637096806
 C          3.7995680227       -0.5948534267        0.0458800738
 C          4.6643007812       -0.7708111008        1.1097419191
 C          6.0290817504       -0.7786519328        0.8693922506
 C          6.5040688462       -0.6114880278       -0.4231273708
 C          5.6244224234       -0.4333558590       -1.4802601188
 C          4.2579799290       -0.4263835088       -1.2467365203
 H          3.5354189441       -0.2846337466       -2.0347783876
 H          5.9957182383       -0.3001905066       -2.4835796773
 H          7.5666126012       -0.6173011361       -0.6078086463
 H          6.7159400602       -0.9140563144        1.6891075950
 H          4.2474462964       -0.8866420964        2.0965141468
 H          2.4639684199       -2.8110856575       -0.1095419457
 H          1.0114534236       -4.5812718016       -0.7482189941
 H         -1.3276166187       -5.2811828771       -1.0812482722
 H         -3.1794021207       -3.8156473377       -0.4054506845
 C         -2.9473893227       -1.2930255595        0.8019300463
 H         -2.8538314706       -1.1023544438        1.8851254635
 C         -4.3790700240       -1.7431683928        0.5686023981
 C         -5.4551151583       -0.7482946949        0.2534642792
 C         -5.0269803735       -1.7419978562       -0.7822411589
 H         -5.7026684719       -2.5503068441       -1.0217808181
 H         -4.4387188761       -1.3979903490       -1.6173581559
 H         -5.1547682957        0.2817745622        0.1244811333
 H         -6.4212669173       -0.8688727976        0.7201122594
 H         -4.6577130382       -2.5527303601        1.2368934363
 O         -2.5430734662        1.0884555409        2.2595960016
