  62
        -98.93984185
 C         -1.8375930079       -0.9811318884        0.4947328989
 C         -2.4108340893        0.1262984123        1.1717026275
 C         -3.8701171263        0.2644232902        1.0868593132
 C         -4.5757881400       -0.6547846824        0.4037292770
 C         -6.0611487170       -0.6157130871        0.1929837803
 C         -6.4201250244        0.1312890813       -1.0990818570
 C         -5.7277911193        1.4867603640       -1.2416801813
 H         -4.6517567190        1.3292585956       -1.3466562253
 H         -6.0790002753        1.9352996933       -2.1735229319
 C         -5.9850639339        2.4561845034       -0.0795337340
 H         -6.2098493763        3.4430771264       -0.4895382398
 H         -6.8601006039        2.1336633266        0.4859513151
 C         -4.8021361570        2.6302116388        0.8750642447
 H         -5.0087343121        3.4886172200        1.5200961981
 H         -3.8994303177        2.8618327797        0.3035150881
 C         -4.4998600270        1.4349442963        1.7876792961
 H         -3.7713002056        1.7635956706        2.5348698583
 H         -5.4104782755        1.1291767896        2.3072441534
 H         -7.5025423826        0.2687804940       -1.1287143857
 H         -6.1326034640       -0.4906217346       -1.9498115765
 H         -6.5305678121       -0.1319840732        1.0474024008
 H         -6.4254518773       -1.6419310007        0.1219554818
 O         -3.9983738574       -1.7116354459       -0.2171712645
 C         -2.6198510406       -1.8994970439       -0.2078845697
 O         -2.2524526388       -2.9016367174       -0.8459491678
 O         -1.7282022053        0.9589765144        1.8286848168
 C         -0.3273869701       -1.1197504913        0.5787520805
 C          0.3395655770       -0.4254570161       -0.5811492553
 C         -0.0315604692       -0.7041105278       -1.8938442689
 C          0.5810976480       -0.0523032169       -2.9477206510
 C          1.5767896599        0.8806898338       -2.7162981457
 C          1.9504723717        1.1712104998       -1.4092301976
 C          1.3337293590        0.5147429262       -0.3511923574
 H          1.6121851307        0.7718235170        0.6598360604
 N          2.9425168442        2.1238736201       -1.1537615723
 S          3.9201986716        2.0464333461        0.1905582918
 O          3.2008349076        2.4578096005        1.3696706428
 O          5.0677009057        2.8556913886       -0.1610813677
 C          4.4233486711        0.3413227360        0.3518718310
 C          4.4655690714       -0.2221964448        1.6111597700
 C          4.9020066204       -1.5306947134        1.7491455557
 C          5.2807703516       -2.2531258060        0.6284504341
 C          5.2300234636       -1.6745188048       -0.6302979856
 C          4.8034887988       -0.3639248516       -0.7730537892
 H          4.7633224983        0.1091634439       -1.7403824405
 H          5.5205573393       -2.2401919540       -1.5006540828
 H          5.6130607414       -3.2731592346        0.7366539830
 H          4.9379439576       -1.9812002482        2.7279849247
 H          4.1480298355        0.3704614041        2.4544291250
 H          3.4146875238        2.4971995381       -1.9629018096
 H          2.0523085674        1.3916075312       -3.5395040240
 H          0.2833773646       -0.2754842618       -3.9611216637
 H         -0.8040432556       -1.4359990463       -2.0747922193
 H         -0.0481182049       -0.5685339533        1.4912528114
 C          0.1372508545       -2.5587563103        0.7575651393
 C          0.9186759431       -3.3137474132       -0.2717435605
 C          1.5929476030       -2.8442588049        0.9796831693
 H          1.8702549162       -3.5716314695        1.7270017173
 H          2.2755999803       -2.0116812043        0.8969812380
 H          0.7021686256       -4.3646786222       -0.3857137413
 H          1.1596278960       -2.8169194010       -1.1976589615
 H         -0.5681635825       -3.1395325461        1.3428914935
