  62
        -98.94493698
 C          2.1892252246        0.9537796120        0.5402557579
 C          2.3374893759        0.1752007000       -0.6334351675
 C          3.1269667713       -1.0543898807       -0.4843389768
 C          3.6047412340       -1.4025420778        0.7240067841
 C          4.4069336058       -2.6361086853        1.0386546414
 C          5.9084918152       -2.4932592830        0.7538208834
 C          6.2927704406       -2.4862671024       -0.7262998315
 H          7.3771142977       -2.6033436905       -0.7756090565
 H          5.8491027185       -3.3517768477       -1.2193823338
 C          5.9002681400       -1.2061532117       -1.4771094721
 H          5.6876051108       -0.4122870897       -0.7574874470
 H          6.7416958963       -0.8691962718       -2.0865930572
 C          4.6992588013       -1.3614195291       -2.4102842290
 H          4.4855017063       -0.3883837646       -2.8595537209
 H          4.9471449152       -2.0568794344       -3.2151401066
 C          3.4212617165       -1.8531149554       -1.7178950576
 H          2.5819507335       -1.7204257715       -2.4054905973
 H          3.5075301856       -2.9121914516       -1.4749022260
 H          6.4115536134       -3.3358009582        1.2338485444
 H          6.2678473583       -1.5772334255        1.2282569486
 H          4.2754481128       -2.8285829555        2.1057595778
 H          4.0076904515       -3.4844742580        0.4817476483
 O          3.3849379460       -0.6573617219        1.8407392045
 C          2.6892122917        0.5398338056        1.7739817898
 O          2.5727059762        1.1273423843        2.8697436504
 H         -0.2118004814        0.4954783915        1.5921270077
 C         -0.7082643723        1.0169991089        0.7817826147
 C         -0.0081314813        1.9922666163        0.0813717953
 C         -0.6536059970        2.6545436657       -0.9535491186
 C         -1.9590830280        2.3319048854       -1.2835064737
 C         -2.6494376716        1.3571227452       -0.5874884035
 C         -2.0153357808        0.6934087149        0.4551558444
 N         -2.7143345086       -0.2883190438        1.1826733622
 S         -3.4297981756       -1.5378304459        0.3148427254
 O         -3.5226655011       -2.6393293103        1.2490731719
 O         -2.7270757459       -1.7997268215       -0.9199424177
 C         -5.0681788669       -0.9299158273       -0.0268520775
 C         -5.8553797194       -0.5448139930        1.0407967499
 C         -7.1349402394       -0.0743959120        0.7927162206
 C         -7.6040742212       -0.0008955971       -0.5105760171
 C         -6.8025910151       -0.3948761782       -1.5710951940
 C         -5.5208661392       -0.8651466264       -1.3300332858
 H         -4.8589492724       -1.1767905639       -2.1224022619
 H         -7.1687861883       -0.3371351335       -2.5835205385
 H         -8.6002619023        0.3659873937       -0.7009774932
 H         -7.7610749557        0.2328765888        1.6147630310
 H         -5.4537045315       -0.6218710802        2.0373511422
 H         -2.1844807438       -0.6642351773        1.9563025195
 H         -3.6642636763        1.1015025400       -0.8448441900
 H         -2.4460933213        2.8483069817       -2.0965175489
 H         -0.1317243283        3.4145784555       -1.5109160340
 C          1.4197358315        2.2625009234        0.4912782570
 H          1.4090014571        2.6466934629        1.5218264488
 C          2.1331672647        3.2609694039       -0.3951737107
 C          1.9701642010        4.7308732921       -0.1552320611
 C          3.2658055171        4.0561544400        0.1786343750
 H          4.1265776867        4.2505375026       -0.4434553458
 H          3.5080065398        3.8945682056        1.2193048928
 H          1.9439969970        5.3930531592       -1.0073046139
 H          1.3337683059        5.0359782932        0.6614984345
 H          2.2337208992        2.9139768587       -1.4169144316
 O          1.8412368884        0.4871737007       -1.7463994932
