  62
        -98.93621557
 C         -1.7586277473        0.7196522798       -0.9474673734
 C         -2.0763236652        0.3555420422        0.3826485426
 C         -3.5073395631        0.3660531777        0.7275746227
 C         -4.4059380733        0.7260441944       -0.2069552727
 C         -5.8983208755        0.7108112413       -0.0336342095
 C         -6.4261996745       -0.7341978297       -0.1409425839
 C         -7.0359975311       -1.2798689667        1.1504308023
 H         -8.0248781646       -0.8380772268        1.2901469436
 H         -7.1716970781       -2.3555294634        1.0188224345
 C         -6.2270370292       -1.0314607395        2.4271959572
 H         -6.6370356064       -1.6899342590        3.1959675759
 H         -6.3919476634       -0.0099284143        2.7729992268
 C         -4.7160850766       -1.2766999035        2.3231944217
 H         -4.3840920823       -1.7465792374        3.2512025444
 H         -4.4936086941       -1.9762126896        1.5170821954
 C         -3.8707839008       -0.0024385492        2.1394297219
 H         -4.3734988114        0.8413651121        2.6200232748
 H         -2.9107270975       -0.1452159015        2.6441781408
 H         -7.1823394125       -0.7883578343       -0.9257018819
 H         -5.6015666135       -1.3774828369       -0.4553524354
 H         -6.3233980211        1.3298174693       -0.8239588557
 H         -6.1615155280        1.1443240392        0.9285603119
 O         -4.0578319640        1.0790841409       -1.4725120693
 C         -2.7328922558        1.0801427179       -1.8765966559
 O         -2.5558143110        1.4110789287       -3.0668799067
 O         -1.2107399120        0.0382581439        1.2390206671
 C         -0.3094653042        0.7317145582       -1.3975353352
 C          0.3199855670       -0.6236132681       -1.1850579866
 C         -0.3841454332       -1.7648605343       -1.5610844349
 C          0.1587934982       -3.0216148084       -1.3809586831
 C          1.4231386692       -3.1680797114       -0.8375343874
 C          2.1407546719       -2.0365076324       -0.4720697564
 C          1.5877123184       -0.7745444679       -0.6459738870
 H          2.1612239929        0.0904303652       -0.3588936625
 N          3.4150702509       -2.1527359261        0.0991235108
 S          4.6116070742       -1.0400574987       -0.2471854804
 O          4.5309190132       -0.5740018136       -1.6119312459
 O          5.8428955222       -1.7077376442        0.1195580474
 C          4.3327531108        0.3080407652        0.8817866121
 C          3.8806012204        0.0391465441        2.1582569527
 C          3.7040478528        1.0930275493        3.0404574531
 C          3.9888108090        2.3890366035        2.6380418179
 C          4.4492222018        2.6416624271        1.3552042457
 C          4.6240002818        1.5923763567        0.4663861046
 H          4.9685436913        1.7445035227       -0.5442959413
 H          4.6703174212        3.6503899772        1.0437107298
 H          3.8492797703        3.2070141150        3.3271940942
 H          3.3421115561        0.9006139862        4.0376483847
 H          3.6627181374       -0.9778732984        2.4382143431
 H          3.7758039948       -3.0931519504        0.1622881365
 H          1.8489110621       -4.1497724481       -0.6954488322
 H         -0.4036531255       -3.8966892287       -1.6706777489
 H         -1.3700744510       -1.6514776095       -1.9919443440
 H         -0.3263979965        0.9308222921       -2.4796195573
 C          0.4334598110        1.8573511105       -0.7073945968
 C          1.5904656984        2.5294565301       -1.3812992835
 C          0.2849908188        3.2507606844       -1.2370653868
 H          0.2212147203        4.0663936665       -0.5328657009
 H         -0.3299497406        3.3827038834       -2.1156784432
 H          2.4219755207        2.8503905256       -0.7722746592
 H          1.8745969864        2.1756207752       -2.3611830462
 H          0.4708109431        1.7310095539        0.3687259288
