  62
        -98.94054803
 C          2.3607365779        0.7895880543       -0.1279671773
 C          3.5691816160        1.0904575513        0.5451357306
 C          4.7882384006        0.5325934952       -0.0501134828
 C          4.7063279951       -0.1945036734       -1.1794388713
 C          5.8620976484       -0.8097799280       -1.9211170145
 C          6.3024123381       -2.1731500769       -1.3703653551
 C          7.0395673236       -2.1262520070       -0.0314226013
 H          7.4772090445       -3.1136796960        0.1280961278
 H          7.8612472919       -1.4123159909       -0.0952269569
 C          6.1480501671       -1.7819509156        1.1698779784
 H          5.0995662978       -1.9246072238        0.8977428289
 H          6.3615452960       -2.4697265235        1.9912178734
 C          6.3307555497       -0.3628752087        1.7084004059
 H          7.3418141679       -0.2485914265        2.1054061587
 H          5.6271550585       -0.2150917010        2.5317148571
 C          6.0849669703        0.7419877752        0.6723594030
 H          6.0215788524        1.6977120497        1.1982543498
 H          6.9125110517        0.7856510775       -0.0351593979
 H          5.4218677696       -2.8133961894       -1.2799481221
 H          6.9668252333       -2.6241181185       -2.1109965869
 H          5.5306768343       -0.9460210376       -2.9527132388
 H          6.7086604226       -0.1227088414       -1.9155505580
 O          3.5259629451       -0.4456061326       -1.8064562441
 C          2.3245953834        0.0169775302       -1.2885726762
 O          1.3215065197       -0.3174779240       -1.9472344304
 H         -1.5653683090        0.8522679479       -0.3412397600
 C         -1.1634663822        0.0865098051        0.3004352876
 C          0.1354477507        0.1679088070        0.7739939305
 C          0.6087327333       -0.8491951843        1.6005363989
 C         -0.1958614485       -1.9201122134        1.9354104974
 C         -1.4954123349       -1.9947553787        1.4647786770
 C         -1.9769439042       -0.9870115541        0.6386511891
 N         -3.2809971042       -1.0484662520        0.1229330078
 S         -4.1399172507        0.3880555813       -0.0894819437
 O         -3.7746600235        0.9769435412       -1.3529945866
 O         -3.9911464978        1.2305329957        1.0759214874
 C         -5.8034872296       -0.2491331586       -0.1812838251
 C         -6.2552149900       -0.7568295441       -1.3848519423
 C         -7.5355021687       -1.2830668198       -1.4514290986
 C         -8.3380689993       -1.2937719329       -0.3201596885
 C         -7.8718717928       -0.7788607794        0.8800860518
 C         -6.5919843455       -0.2519949436        0.9539331399
 H         -6.1903857024        0.1670968756        1.8624862530
 H         -8.4994247818       -0.7854217595        1.7566737902
 H         -9.3342887425       -1.7033410617       -0.3753619669
 H         -7.9023364629       -1.6814282702       -2.3835876686
 H         -5.5989513261       -0.7191882033       -2.2388363475
 H         -3.8456545792       -1.7633132796        0.5607257514
 H         -2.1265329205       -2.8302217190        1.7272094664
 H          0.1872613426       -2.7010506753        2.5751490298
 H          1.6218104422       -0.7859443065        1.9747701513
 C          1.0553501129        1.3159147600        0.4395511791
 H          1.3269388754        1.8190214713        1.3801547290
 C          0.4386852507        2.3357524832       -0.4933607723
 C         -0.5004539352        3.3728285341        0.0434444518
 C          0.8732291459        3.7668038586       -0.4073657622
 H          0.9746193056        4.3305509117       -1.3225024570
 H          1.6056830152        4.0181663387        0.3457516700
 H         -0.7072323101        3.3580065720        1.1031769684
 H         -1.3495533400        3.6584782504       -0.5598921055
 H          0.2383822434        1.9323332607       -1.4803755329
 O          3.6251864585        1.7885586080        1.5930492592
