  62
        -98.94107331
 C          2.1998463304        0.9965204631        0.6752371718
 C          2.2042337188        0.1070483970       -0.4282676124
 C          3.0913707997       -1.0591167964       -0.3007638811
 C          3.7722162330       -1.2679573595        0.8395323830
 C          4.7008312995       -2.4172882129        1.1230111152
 C          6.1269398713       -2.2099856167        0.5944909159
 C          6.2800508342       -2.3139039198       -0.9235207578
 H          7.3499641918       -2.3676437574       -1.1340569307
 H          5.8328802107       -3.2464193826       -1.2693240955
 C          5.6827506922       -1.1344490201       -1.7037355531
 H          5.5236884196       -0.2923154761       -1.0262528751
 H          6.3937383015       -0.8030186364       -2.4637018820
 C          4.3688762549       -1.4481673116       -2.4198527889
 H          4.5427653812       -2.1994998095       -3.1932667015
 H          4.0187848349       -0.5362496084       -2.9103380705
 C          3.2502295741       -1.9488803890       -1.4963916418
 H          2.3084049704       -1.9299051562       -2.0511704313
 H          3.4496803308       -2.9741866353       -1.1847089862
 H          6.4856837985       -1.2345992069        0.9313400293
 H          6.7583421073       -2.9732770634        1.0549761182
 H          4.7470697188       -2.5188359791        2.2095515068
 H          4.2858121475       -3.3354385608        0.7059532155
 O          3.6695544266       -0.4374319888        1.9117825750
 C          2.8987618705        0.7130959967        1.8511063739
 O          2.9032235873        1.3843402627        2.9029160291
 O          1.5148235930        0.2642636982       -1.4679247845
 C          1.3665075697        2.2669046069        0.6736538840
 C         -0.0267978599        1.9678222169        0.1757763844
 C         -0.6156781867        2.6019069752       -0.9094594502
 C         -1.8985710499        2.2640650228       -1.3041338211
 C         -2.6210340010        1.2983570275       -0.6284005753
 C         -2.0388356977        0.6521534207        0.4544621161
 C         -0.7565239539        0.9968061488        0.8513594685
 H         -0.3000143675        0.4896454477        1.6939386484
 N         -2.7664393667       -0.3235151820        1.1585745416
 S         -3.5566245035       -1.5249453839        0.2913855090
 O         -3.6841333821       -2.6290384890        1.2187666747
 O         -2.8956966202       -1.8108137319       -0.9605049041
 C         -5.1699146772       -0.8326096823       -0.0087156821
 C         -5.6468357538       -0.7303733595       -1.3008317034
 C         -6.9053917843       -0.1877078318       -1.5095533951
 C         -7.6609499684        0.2389738490       -0.4281933259
 C         -7.1692799595        0.1250402142        0.8637647810
 C         -5.9123453430       -0.4169388911        1.0792439153
 H         -5.4949908917       -0.5267564109        2.0662192614
 H         -7.7601143508        0.4569305483        1.7022514361
 H         -8.6389567600        0.6626593781       -0.5933407445
 H         -7.2893359247       -0.0992708334       -2.5131821773
 H         -5.0209176948       -1.0705528473       -2.1107252144
 H         -2.2592578708       -0.7247002023        1.9341428725
 H         -3.6176545306        1.0300159006       -0.9380745600
 H         -2.3422005007        2.7593995660       -2.1543845720
 H         -0.0617691939        3.3410591748       -1.4640628546
 H          1.2850050364        2.5520019864        1.7359652513
 C          2.0253297303        3.4397523460       -0.0375529320
 C          3.5176575428        3.5432760673       -0.1339326556
 C          2.7028191030        3.2958360193       -1.3658944333
 H          2.6026366403        4.0989116259       -2.0814820081
 H          2.7236651771        2.3144535215       -1.8119718122
 H          3.9740170273        4.5127588975       -0.0015170932
 H          4.1027856839        2.7280645253        0.2671714112
 H          1.4930946169        4.3691276903        0.1398882543
