  62
        -98.93382823
 C         -1.2320072611       -1.9704933552       -0.0763778469
 C         -2.1852137504       -1.4580512579        0.8422028062
 C         -3.2182128513       -0.5717467636        0.2924650520
 C         -3.2265254032       -0.3034307850       -1.0249955127
 C         -4.2301930148        0.5380618857       -1.7681289825
 C         -4.2602539257        2.0351650415       -1.4050039813
 C         -5.2938812353        2.4070225640       -0.3349172760
 H         -6.0846706893        1.6559423897       -0.3332162834
 H         -5.7625225683        3.3532555434       -0.6130304914
 C         -4.7476033008        2.5789317537        1.0857057891
 H         -5.5984387184        2.5937470490        1.7702119547
 H         -4.2508817898        3.5489884208        1.1601498704
 C         -3.7539253176        1.5147712397        1.5530366982
 H         -3.6047528999        1.6358265711        2.6276172628
 H         -2.7820697748        1.6832242151        1.0839998035
 C         -4.1777818923        0.0633848506        1.2561300645
 H         -5.1937616344        0.0285390749        0.8656078945
 H         -4.1396898651       -0.5310618125        2.1710046766
 H         -4.5047579315        2.5781551944       -2.3193765915
 H         -3.2648841811        2.3514985643       -1.0954418140
 H         -5.2242296871        0.1094343770       -1.6217240996
 H         -3.9746950649        0.4315462309       -2.8244580773
 O         -2.3018069220       -0.8227394171       -1.8761753948
 C         -1.2768016500       -1.6481251894       -1.4326536214
 O         -0.5039056449       -2.0082005054       -2.3418123582
 O         -2.1783893755       -1.7422548882        2.0688936445
 C         -0.1558784055       -2.8770754110        0.4985228704
 C          1.0799180973       -2.0723258696        0.8093198016
 C          1.5790108376       -1.9848956886        2.1027995728
 C          2.6953313348       -1.2121821807        2.3760953855
 C          3.3352650284       -0.5144589575        1.3676763927
 C          2.8393989388       -0.5919276300        0.0719406227
 C          1.7198018204       -1.3634683578       -0.1995052010
 H          1.3345867797       -1.4196370664       -1.2071806178
 N          3.4759675091        0.1155662904       -0.9674548875
 S          3.7117663846        1.7563003175       -0.7423372485
 O          3.9025697550        2.3037393149       -2.0656739495
 O          4.7928658055        1.9559220868        0.1894395375
 C          2.1864939799        2.3551498023       -0.0381208623
 C          1.0980647886        2.4996337761       -0.8750536805
 C         -0.1033742088        2.9372666928       -0.3427277510
 C         -0.1991161501        3.2105388673        1.0131257066
 C          0.9006314688        3.0515354710        1.8417190701
 C          2.1071866328        2.6207514022        1.3138308944
 H          2.9880091494        2.4963921681        1.9217152196
 H          0.8208127154        3.2627239676        2.8957774839
 H         -1.1350096952        3.5533166648        1.4262533618
 H         -0.9577816629        3.0627727834       -0.9895027014
 H          1.2088547928        2.2843509464       -1.9261505046
 H          3.0577060070       -0.0559944615       -1.8710079444
 H          4.2066550419        0.0898581064        1.5608962770
 H          3.0724830414       -1.1535443165        3.3855675325
 H          1.0774361715       -2.5154459523        2.8986129160
 H         -0.5734783335       -3.2258706127        1.4554911998
 C          0.1137880605       -4.1061629401       -0.3601163127
 C          1.4486561108       -4.4309408473       -0.9561350341
 C          0.9308546748       -5.2353152132        0.1955451149
 H          0.6048963697       -6.2491874114        0.0195860696
 H          1.3954434272       -5.0807005583        1.1578834982
 H          1.4601277973       -4.8764661790       -1.9394810294
 H          2.2729330914       -3.7588196830       -0.7760805208
 H         -0.7498243376       -4.3833399535       -0.9557591053
