  62
        -98.93735307
 C          1.4405659877        1.6772429536       -0.0745699298
 C          1.3563848209        0.3143838591        0.2960104707
 C          2.6337851238       -0.3729672242        0.5916318249
 C          3.7802556347        0.3287087636        0.5457168369
 C          5.1869626698       -0.1621124172        0.7643466188
 C          5.7307789418       -0.9568845072       -0.4336511512
 C          4.7581331253       -1.9738003794       -1.0250456943
 H          3.8497097777       -1.4579072936       -1.3410127827
 H          5.2218285639       -2.3920627128       -1.9224517128
 C          4.3904833663       -3.1345621868       -0.1037496624
 H          3.7776738888       -3.8272768932       -0.6859367638
 H          5.3013305819       -3.6626208210        0.1870893540
 C          3.6156944644       -2.7633955117        1.1628489242
 H          4.2764771922       -2.3521740876        1.9211933357
 H          3.2082227797       -3.6896464107        1.5778990389
 C          2.4319086605       -1.8297449460        0.9317850938
 H          1.8005315728       -2.2386128298        0.1355196098
 H          1.7998418511       -1.8344944032        1.8276104751
 H          5.9891362084       -0.2453484975       -1.2220294295
 H          6.6471320452       -1.4624932736       -0.1240789931
 H          5.8095859311        0.7243932716        0.9047744317
 H          5.2405035406       -0.7507042701        1.6753671038
 O          3.8049052342        1.6587688640        0.2394172907
 C          2.6579474884        2.3609514622       -0.0722038926
 O          2.8451317847        3.5706412516       -0.3151910301
 H         -2.2040850046        1.1909213724       -0.8500945636
 C         -2.0612813202        1.5151845898        0.1662966333
 C         -0.9066432902        2.1842987548        0.5383775360
 C         -0.7592426598        2.5772153268        1.8660770400
 C         -1.7400664658        2.2984017132        2.7979026427
 C         -2.8848092666        1.6153219935        2.4267906663
 C         -3.0414132937        1.2209754962        1.1034014156
 N         -4.1975305153        0.5407125995        0.6983498549
 S         -4.1745073481       -0.5794147484       -0.5360986162
 O         -4.0422440081        0.0857460847       -1.8090744722
 O         -5.4056485100       -1.3212428363       -0.3490172729
 C         -2.7962174856       -1.6750902319       -0.2569504690
 C         -2.6404191149       -2.2423515560        0.9909434161
 C         -1.6144753050       -3.1499700585        1.1896830685
 C         -0.7710207464       -3.4799390049        0.1414027281
 C         -0.9393610099       -2.8996138175       -1.1045646411
 C         -1.9607634757       -1.9870575601       -1.3074984239
 H         -2.1202269671       -1.5064701164       -2.2596556586
 H         -0.2753518737       -3.1479432742       -1.9182073969
 H          0.0260879781       -4.1899267288        0.2994491342
 H         -1.4724773450       -3.5952993127        2.1615710488
 H         -3.3149341396       -1.9741432691        1.7881229571
 H         -4.8223951629        0.2695175790        1.4424871634
 H         -3.6496230037        1.3883136715        3.1539090469
 H         -1.6106077809        2.6077000632        3.8242378915
 H          0.1434911162        3.0967687346        2.1589640830
 C          0.2056045138        2.4853726768       -0.4341920574
 H          0.5019616813        3.5386535446       -0.2974177998
 C         -0.2232743385        2.3378179148       -1.8865485010
 C          0.7872828624        2.1296786605       -2.9734916275
 C         -0.1616844247        1.0286804140       -2.6118028567
 H         -0.9619880601        0.7912213162       -3.2983347693
 H          0.2177288948        0.1760510300       -2.0709545012
 H          0.6466973845        2.6468845223       -3.9107306724
 H          1.8225889239        2.0315758369       -2.6802887233
 H         -1.0614826120        2.9851980945       -2.1280571250
 O          0.2779776496       -0.3260972018        0.3767317023
