  62
        -98.93816779
 C         -1.7803939501       -1.0864842533       -0.0676285382
 C         -2.2954736359        0.0820523330       -0.6718648435
 C         -3.7662725642        0.2255591538       -0.6934282806
 C         -4.5217925662       -0.7489710254       -0.1536237230
 C         -6.0210655746       -0.8034544385       -0.0263038062
 C         -6.5536638375        0.1021213836        1.0960446295
 C         -5.9238808429        1.4913495450        1.1550234511
 H         -6.3011688705        1.9890940620        2.0522589716
 H         -4.8430268121        1.3913699216        1.2706155277
 C         -6.2244488687        2.3932367210       -0.0396756283
 H         -7.3054982226        2.5224598168       -0.1284747594
 H         -5.7896516550        3.3726684401        0.1757879772
 C         -5.6795660245        1.9197758894       -1.3888046020
 H         -5.7527863487        2.7621824024       -2.0830075017
 H         -6.2941426148        1.1252308890       -1.8034237606
 C         -4.2135342258        1.4978440551       -1.3719898390
 H         -3.8626386491        1.4168072570       -2.4082009243
 H         -3.6130044171        2.3012237364       -0.9296848384
 H         -7.6348858408        0.1944993811        0.9807261546
 H         -6.3569622618       -0.3924384016        2.0503476728
 H         -6.4853072663       -0.5572885796       -0.9765917270
 H         -6.2778859270       -1.8381636814        0.2111371388
 O         -3.9768748606       -1.8608110046        0.4190877628
 C         -2.6125898525       -2.0611273785        0.4806765784
 O         -2.2673817109       -3.1216352310        1.0402932791
 H          1.8172658385        0.3116398804       -0.8274711276
 C          1.4399944628        0.5495944176        0.1527152363
 C          0.3868240142       -0.1654909604        0.6995665679
 C         -0.0788869957        0.1914424566        1.9635863281
 C          0.4787571008        1.2513303604        2.6499495718
 C          1.5224438581        1.9722910740        2.0959373040
 C          1.9996310704        1.6203830764        0.8395998583
 N          3.0486551147        2.3412519603        0.2564435521
 S          4.1454669687        1.6184846903       -0.7649275677
 O          5.3031098843        2.4868099413       -0.7146712182
 O          3.5751679581        1.4149981373       -2.0727836544
 C          4.5436125655        0.0424886098       -0.0264912869
 C          4.7853460966       -0.0259123873        1.3313932695
 C          5.1093584926       -1.2501055310        1.8932483439
 C          5.1926401290       -2.3791139042        1.0927206713
 C          4.9566520888       -2.2927924787       -0.2701643292
 C          4.6285843187       -1.0711353128       -0.8361103672
 H          4.4309153082       -0.9593755372       -1.8899030948
 H          5.0230938284       -3.1703264663       -0.8932541776
 H          5.4434421888       -3.3312305555        1.5331277422
 H          5.2945047197       -1.3201704301        2.9530226454
 H          4.7194854483        0.8659049596        1.9325804384
 H          3.4661655218        3.0534800178        0.8356825619
 H          1.9544641717        2.8080056538        2.6249755900
 H          0.1007669712        1.5198417390        3.6249022558
 H         -0.8969938650       -0.3710577874        2.3932404505
 C         -0.2804084934       -1.3173496446       -0.0097522718
 H         -0.1377749778       -2.2225050719        0.5985075011
 C          0.2558544406       -1.5787437905       -1.4009164641
 C          1.4721590323       -2.4315414824       -1.5925290376
 C          0.1216027601       -2.9560550774       -1.9753071188
 H         -0.1169081829       -3.0573664460       -3.0234946094
 H         -0.3338721354       -3.7096317712       -1.3491964001
 H          2.1601638738       -2.1695878007       -2.3818249712
 H          1.9440994718       -2.8351835705       -0.7096309232
 H          0.1073301899       -0.7404499967       -2.0725661446
 O         -1.5675961545        0.9798577409       -1.1724629336
