  62
        -98.94564512
 C          1.1263569234        1.4299511030        0.7616247348
 C          2.0369260826        1.4145402092       -0.3219937055
 C          3.0165416642        0.3185440186       -0.3174066427
 C          2.9757339231       -0.6010382660        0.6638441559
 C          3.8831683821       -1.7930111727        0.7554118702
 C          3.2851775351       -3.0137845191        0.0426444954
 C          2.7623786818       -2.7201782209       -1.3630452233
 H          2.3870200544       -3.6600897021       -1.7726666209
 H          1.9123621772       -2.0371939177       -1.2927151250
 C          3.8091477766       -2.1342886766       -2.3207607146
 H          4.8117894619       -2.3269340893       -1.9369401406
 H          3.7274793839       -2.6431762305       -3.2835347037
 C          3.6527378944       -0.6377382617       -2.5947119761
 H          2.6225480550       -0.4227532690       -2.8902597433
 H          4.2963007287       -0.3771462481       -3.4393556255
 C          4.0230567328        0.2924700087       -1.4330007772
 H          5.0137347020        0.0328659068       -1.0542216860
 H          4.0611109271        1.3130508611       -1.8250568494
 H          4.0493824511       -3.7915192139       -0.0066748259
 H          2.4528688881       -3.3857457192        0.6413952467
 H          4.8469009944       -1.5390394517        0.3177565659
 H          4.0270090696       -2.0338856388        1.8099434340
 O          2.0686387029       -0.5671524722        1.6740782386
 C          1.1239463884        0.4431467075        1.7477827318
 O          0.3503501338        0.3549706545        2.7224659138
 O          2.0412097727        2.2706692682       -1.2445296815
 C          0.0507167053        2.5004815155        0.8370038860
 C         -0.8828239572        2.3158314466       -0.3353673428
 C         -1.1388124798        3.2908494199       -1.2891490526
 C         -1.9818572176        3.0192397177       -2.3534912204
 C         -2.5989099694        1.7880861540       -2.4754401163
 C         -2.3581895430        0.8084254487       -1.5179092971
 C         -1.4993397937        1.0768385348       -0.4659970205
 H         -1.3070364830        0.3128518378        0.2741460076
 N         -2.9573261449       -0.4582280221       -1.6037529895
 S         -3.5468978389       -1.1707587482       -0.2062631425
 O         -4.5360242649       -2.1176224946       -0.6787093259
 O         -4.0208604512       -0.1783157675        0.7299923420
 C         -2.1811161943       -2.0831601454        0.4770568973
 C         -1.8630474854       -1.9328548226        1.8115006480
 C         -0.8447669354       -2.7027081488        2.3500384034
 C         -0.1707581227       -3.6092411685        1.5480740118
 C         -0.4968458354       -3.7441057040        0.2064021058
 C         -1.5127661800       -2.9759995286       -0.3376905020
 H         -1.7996802271       -3.0572948681       -1.3729768669
 H          0.0360604951       -4.4466575015       -0.4142291470
 H          0.6115928929       -4.2163823518        1.9768742989
 H         -0.5783730171       -2.5791783220        3.3872152357
 H         -2.4025334796       -1.2095159601        2.4023195060
 H         -3.5976041520       -0.5727238819       -2.3764199345
 H         -3.2599031298        1.5814898112       -3.3035977517
 H         -2.1658829430        3.7811420516       -3.0958313986
 H         -0.6709551671        4.2578390597       -1.2075683350
 H         -0.5207518361        2.2952340574        1.7541337897
 C          0.6543478552        3.8841394533        0.9369637102
 C         -0.1449020939        5.0036773861        1.5309577726
 C          1.0113650191        4.4241411532        2.2877679702
 H          1.9112242355        5.0125075338        2.3863841221
 H          0.8020574599        3.8000816366        3.1446584394
 H         -0.0387883341        5.9933141212        1.1130916547
 H         -1.1423307628        4.7759256359        1.8764084807
 H          1.3240049786        4.1112143668        0.1162721272
