  62
        -98.93805089
 C         -1.6847221006       -1.5090979394       -0.1887246315
 C         -1.6181070821       -0.2625802618       -0.8570372868
 C         -2.8992418634        0.4422478078       -1.0482188446
 C         -4.0366296130       -0.1042625542       -0.5880535462
 C         -5.4413577305        0.4328625113       -0.6944912995
 C         -5.6491272533        1.9231957112       -0.3843141874
 C         -4.6725533945        2.5216944731        0.6391708721
 H         -5.2426178208        3.0568744646        1.4010455943
 H         -4.1207109186        1.7274865858        1.1452348930
 C         -3.6843853987        3.5110169475        0.0153545724
 H         -4.2260627950        4.1463590509       -0.6892339442
 H         -3.2905279019        4.1586091541        0.8025874395
 C         -2.4831964508        2.8884681538       -0.6968175356
 H         -1.7877153395        2.4683809926        0.0361923416
 H         -1.9462926689        3.6897828809       -1.2111944992
 C         -2.8168097278        1.7854819530       -1.7140096452
 H         -3.7268771214        2.0183950837       -2.2620736028
 H         -1.9866827128        1.7245767288       -2.4228814469
 H         -5.5871976290        2.4989023292       -1.3068763453
 H         -6.6704299291        2.0300393723       -0.0153066671
 H         -5.8132214781        0.2215955245       -1.7009863589
 H         -6.0292059170       -0.1717040583        0.0000210100
 O         -4.0557336509       -1.3082236943        0.0498056120
 C         -2.8959432073       -2.0263452034        0.2753835072
 O         -3.0717554376       -3.1002552302        0.8861742261
 H          1.7274545220       -0.6365176831        0.1280070676
 C          1.3501923366       -0.8288366409        1.1162674276
 C          0.2641350783       -1.6718783456        1.2895759976
 C         -0.2140428477       -1.8930254019        2.5790566722
 C          0.3865765683       -1.2867959439        3.6654896209
 C          1.4662974413       -0.4385873357        3.4870304862
 C          1.9448891467       -0.2033100547        2.2042677856
 N          3.0482166911        0.6376975662        1.9875660131
 S          2.9538224102        1.8038156635        0.7779188257
 O          3.9590631607        2.7784736338        1.1540490479
 O          1.6092132850        2.3081096349        0.6397448920
 C          3.5068622536        0.9611870470       -0.6884152384
 C          2.6519708568        0.7769269179       -1.7565851594
 C          3.1241035889        0.1089164259       -2.8766891667
 C          4.4298557652       -0.3553534174       -2.9097544248
 C          5.2753813204       -0.1570975135       -1.8281894501
 C          4.8117769071        0.5081418182       -0.7052152362
 H          5.4349823404        0.6894776304        0.1545589935
 H          6.2898662597       -0.5208866016       -1.8571181632
 H          4.7886671949       -0.8763292800       -3.7836497870
 H          2.4628419224       -0.0498768969       -3.7140068923
 H          1.6324949878        1.1242962415       -1.6859041406
 H          3.4392637093        1.0336719567        2.8307867070
 H          1.9332083107        0.0407338616        4.3346022701
 H          0.0088286914       -1.4699262056        4.6603846985
 H         -1.0696942177       -2.5404474979        2.7134494160
 C         -0.4397475489       -2.3270086855        0.1244628170
 H         -0.8067042732       -3.3044233893        0.4670567340
 C          0.4499339438       -2.5357394011       -1.0825260046
 C          1.5551802167       -3.5445998328       -1.0069585004
 C          0.3515509354       -3.8131177090       -1.8582709378
 H          0.4579181406       -3.7717490593       -2.9317759092
 H         -0.3596625386       -4.5524264280       -1.5191354381
 H          1.6588631655       -4.1006101103       -0.0873622648
 H          2.4916467910       -3.3184126543       -1.4934131704
 H          0.6323659805       -1.6303633834       -1.6458665518
 O         -0.5565915630        0.2451201109       -1.3004262070
