  62
        -98.94172124
 C         -1.1073064904       -1.6408016727        0.3379719552
 C         -1.8311458559       -0.7418369073        1.1624625003
 C         -2.9751799741       -0.0635840491        0.5391064115
 C         -3.2404997855       -0.2865561824       -0.7606885722
 C         -4.3515723139        0.3612583096       -1.5343073628
 C         -3.8841005045        1.6604631793       -2.2043715575
 C         -3.1423632352        2.6077535459       -1.2616236227
 H         -2.8927300153        3.5029866085       -1.8343779074
 H         -2.2008136105        2.1439204337       -0.9591475323
 C         -3.9359485873        3.0062998576       -0.0094715852
 H         -4.9963525564        2.8015167601       -0.1612828442
 H         -3.8358061656        4.0828385386        0.1429988143
 C         -3.4687780017        2.3270649668        1.2792012677
 H         -3.9354548097        2.8408683239        2.1238020882
 H         -2.3870368517        2.4365401050        1.3809280306
 C         -3.8073377900        0.8370641710        1.4081867245
 H         -4.8710252069        0.6804033314        1.2159033830
 H         -3.5974246754        0.5366309827        2.4389986317
 H         -4.7573077373        2.1656979978       -2.6212799596
 H         -3.2143436238        1.4028955281       -3.0279125256
 H         -5.1824960631        0.5653339217       -0.8615547006
 H         -4.6840038543       -0.3360322905       -2.3052979973
 O         -2.4876640347       -1.1055097271       -1.5362558954
 C         -1.4032249801       -1.8029834344       -1.0166180199
 O         -0.8138672498       -2.5069546173       -1.8560984793
 O         -1.5377648699       -0.5222266358        2.3682901427
 C          0.0529678715       -2.3902731771        0.9680054597
 C          1.2759364629       -2.3025704520        0.0914921935
 C          1.8456170121       -3.3999199716       -0.5404526542
 C          2.9613727456       -3.2427695869       -1.3428624158
 C          3.5412768517       -1.9996518961       -1.5137473002
 C          2.9803612034       -0.8943348805       -0.8841283857
 C          1.8527135696       -1.0518326113       -0.0953054202
 H          1.4152023249       -0.1886512387        0.3878378953
 N          3.5359455722        0.3847166063       -1.0457743803
 S          3.6346703256        1.4136956988        0.2687626871
 O          4.7081267887        2.3266332736       -0.0656315493
 O          3.7876116026        0.6856925652        1.5066417458
 C          2.1077672281        2.3263293418        0.2631166156
 C          1.4559629739        2.5618844856        1.4568393097
 C          0.3153994597        3.3492821450        1.4548210355
 C         -0.1517689052        3.8828603111        0.2638648846
 C          0.5086459813        3.6278429777       -0.9287074624
 C          1.6526430849        2.8466953576       -0.9323374681
 H          2.1961499484        2.6340794580       -1.8378851698
 H          0.1363580950        4.0381940207       -1.8535861853
 H         -1.0371872503        4.4985896068        0.2651408755
 H         -0.2010461690        3.5412963961        2.3821272269
 H          1.8477361509        2.1214282003        2.3601966894
 H          4.3760530728        0.4135039118       -1.6053060706
 H          4.4164861733       -1.8796017773       -2.1344033947
 H          3.3888228328       -4.1016436154       -1.8378577341
 H          1.3999207676       -4.3739941709       -0.4252293045
 H          0.2677223766       -1.8324814016        1.8954026516
 C         -0.2812517335       -3.8135175913        1.3905978970
 C         -1.6659659478       -4.1804200544        1.8314944328
 C         -1.1162283213       -4.7331347414        0.5525955764
 H         -0.8488503731       -5.7793976200        0.5214685964
 H         -1.4980004830       -4.3529286095       -0.3817032861
 H         -1.7771439789       -4.8440641313        2.6758230771
 H         -2.4276965177       -3.4165885883        1.7729144228
 H          0.5344446613       -4.2683208976        1.9450455778
