  62
        -98.93957419
 C         -2.4623830480       -0.9886582011        0.5446064406
 C         -2.3945501009        0.3198811916        0.0041991441
 C         -3.5683730400        1.1710491554        0.2525767632
 C         -4.5898108234        0.7135775457        0.9971000025
 C         -5.8422046512        1.4697017724        1.3484412801
 C         -6.9284861202        1.4141180139        0.2654697380
 C         -6.6423076620        2.2439027737       -0.9868223956
 H         -7.5705583467        2.2890669863       -1.5598924733
 H         -6.3898896595        3.2639021437       -0.6953955239
 C         -5.5355936094        1.6744886062       -1.8854454207
 H         -5.8650877736        1.6952537116       -2.9267452145
 H         -5.3596035712        0.6274206125       -1.6277328964
 C         -4.2096236059        2.4321538882       -1.8144283316
 H         -4.3466648960        3.4463472579       -2.1960106459
 H         -3.4896323804        1.9246175012       -2.4617316259
 C         -3.6048685895        2.5167766494       -0.4067131271
 H         -2.5746811162        2.8702031608       -0.4956397087
 H         -4.1671210705        3.2242666600        0.2021303571
 H         -7.8546156515        1.7807015238        0.7141766020
 H         -7.0872840642        0.3707377924       -0.0171113216
 H         -5.5945415065        2.5093119397        1.5645379227
 H         -6.2378448111        1.0101521688        2.2567981646
 O         -4.5875937734       -0.5277266894        1.5527014204
 C         -3.5402841371       -1.4062074071        1.3307821179
 O         -3.6781275777       -2.5129675375        1.8897707116
 O         -1.4222832814        0.7693271001       -0.6538846797
 C         -1.3460889734       -2.0007399564        0.3482455190
 C         -0.0080416560       -1.3623423784        0.6260118598
 C          0.3140363620       -1.0263623546        1.9378007706
 C          1.5277177118       -0.4390197423        2.2397771091
 C          2.4457378734       -0.1705846027        1.2396325868
 C          2.1334770627       -0.4986879725       -0.0720949406
 C          0.9168342134       -1.0983635035       -0.3710996234
 H          0.6787781062       -1.3291823157       -1.3980508141
 N          3.0534618049       -0.2084242064       -1.0935345892
 S          4.6421766796       -0.7078225708       -0.9101653359
 O          5.1632479700       -0.8187801191       -2.2555037495
 O          4.7319156160       -1.8933878252       -0.0888560742
 C          5.4369599696        0.6606000821       -0.0940785073
 C          5.3465401554        1.9094787020       -0.6768075979
 C          5.9709048154        2.9819452835       -0.0603178289
 C          6.6736088623        2.7882512779        1.1197799023
 C          6.7574981108        1.5276007496        1.6905952411
 C          6.1343147548        0.4506999666        1.0793266746
 H          6.1678140671       -0.5461033422        1.4895271022
 H          7.3041026130        1.3791465573        2.6080453592
 H          7.1584406983        3.6250066701        1.5974505616
 H          5.9072799059        3.9639764247       -0.5007960322
 H          4.7931268449        2.0181553422       -1.5946972314
 H          2.7099558957       -0.4057344999       -2.0219425656
 H          3.3926507599        0.2918816479        1.4661447791
 H          1.7614172031       -0.1842252158        3.2624659366
 H         -0.4063271848       -1.2294013718        2.7190363040
 H         -1.5176363551       -2.7652166544        1.1236809198
 C         -1.3957450227       -2.7264912542       -0.9887063842
 C         -2.7108389375       -3.0846286772       -1.6123864020
 C         -1.8289026321       -2.0615008923       -2.2592664241
 H         -1.3222425810       -2.3300752597       -3.1752692824
 H         -2.1197502365       -1.0242513330       -2.2107155629
 H         -2.8118724348       -4.0516467598       -2.0816037018
 H         -3.6065235638       -2.7473592494       -1.1110545383
 H         -0.6065544118       -3.4684826577       -1.0718410816
