  62
        -98.93865435
 C         -1.9251457484       -1.3652279247        0.3465872949
 C         -2.5917707667       -0.7531592617       -0.7388911104
 C         -3.7641903152        0.0845677557       -0.4111227544
 C         -4.1242401588        0.2213163661        0.8786089989
 C         -5.2469518240        1.0468356329        1.4481526304
 C         -4.9166671258        2.5483009282        1.4849295127
 C         -4.2385063151        3.0896012401        0.2286282819
 H         -3.9497916362        4.1254339742        0.4267343332
 H         -3.3195900163        2.5290695671        0.0449333935
 C         -5.0996150941        3.0785768031       -1.0321937468
 H         -5.9912102800        3.6861224219       -0.8612565086
 H         -4.5189153734        3.5570128739       -1.8251524892
 C         -5.5400543237        1.7007496178       -1.5303299960
 H         -5.9380284411        1.8333432256       -2.5406748892
 H         -6.3549061549        1.3094581777       -0.9271885547
 C         -4.4191543483        0.6713062598       -1.6381624954
 H         -4.7891104292       -0.1858137967       -2.2139019782
 H         -3.6041682964        1.0906367269       -2.2395186706
 H         -5.8392219676        3.1009974343        1.6697082435
 H         -4.2434265984        2.7251675266        2.3274645672
 H         -6.1622551351        0.8638190565        0.8934084892
 H         -5.4036022534        0.7008129170        2.4722481869
 O         -3.4372916612       -0.3757770288        1.8951826170
 C         -2.3301352541       -1.1685138404        1.6650423956
 O         -1.7959232898       -1.6272619275        2.6963307372
 H          0.1520942622        0.1688863303        0.7994242260
 C          0.6877059452       -0.1897715858       -0.0715727822
 C          0.3682984165       -1.4381747990       -0.5926864252
 C          1.0751596632       -1.8935444047       -1.6972870109
 C          2.0479516612       -1.1007913711       -2.2829499543
 C          2.3445810912        0.1509414688       -1.7775002138
 C          1.6593030538        0.6064034800       -0.6574936576
 N          1.9652002484        1.8681794427       -0.1216835529
 S          3.5751163401        2.3024928657        0.0107108039
 O          3.6248303180        3.2379767337        1.1125022271
 O          4.0495347887        2.7999134670       -1.2566692453
 C          4.4382348176        0.7974988437        0.4276598984
 C          5.4317633403        0.3198889871       -0.4023845737
 C          6.0700178195       -0.8647197233       -0.0712233780
 C          5.7024875308       -1.5494383698        1.0764246011
 C          4.7046237952       -1.0546573479        1.9024801447
 C          4.0648852248        0.1302446558        1.5775593921
 H          3.2879123873        0.5418466239        2.2022412213
 H          4.4191506782       -1.5877922064        2.7952300964
 H          6.1957673192       -2.4740855394        1.3311086571
 H          6.8476030596       -1.2507360270       -0.7102650901
 H          5.6830900262        0.8825868005       -1.2866367678
 H          1.4483630533        2.0994200091        0.7132714638
 H          3.0835939871        0.7876553229       -2.2360407324
 H          2.5794974564       -1.4616423720       -3.1500114685
 H          0.8567816670       -2.8648036299       -2.1089557032
 C         -0.7101203592       -2.2397494263        0.0960626446
 H         -0.3362397165       -2.5287012408        1.0893730905
 C         -1.1115423978       -3.4913983280       -0.6558918483
 C         -0.3404142367       -4.7629433976       -0.4726031991
 C         -1.7148857647       -4.6296330548        0.1090376052
 H         -2.5250002528       -5.1826780471       -0.3421746298
 H         -1.8115932205       -4.5114450220        1.1787758254
 H         -0.2079830877       -5.4131921902       -1.3240860318
 H          0.4990993882       -4.7456574958        0.2056082576
 H         -1.5215999671       -3.2740170556       -1.6352892180
 O         -2.2278362325       -0.8887880265       -1.9361117641
