  62
        -98.93547376
 C         -2.3331061133       -0.5876274322        0.8831382921
 C         -3.4903811382       -1.0503731961        0.2072398065
 C         -4.6809965947       -0.1892880695        0.3137280245
 C         -4.6145273548        0.9574592245        1.0119782690
 C         -5.7334036530        1.9487558872        1.1465175465
 C         -5.6743505288        3.0097994878        0.0386754699
 C         -5.5150260038        2.4284663610       -1.3661853835
 H         -5.5155146655        3.2666931456       -2.0663330059
 H         -4.5373169450        1.9469094551       -1.4429393241
 C         -6.6070896053        1.4267240464       -1.7666460999
 H         -7.4722259751        1.5409499753       -1.1125671574
 H         -6.9360851122        1.6553664348       -2.7825079458
 C         -6.1584231364       -0.0356548957       -1.7621700213
 H         -5.2373194182       -0.1379351912       -2.3412290161
 H         -6.9277014224       -0.6289086492       -2.2635138373
 C         -5.9296535232       -0.6587042254       -0.3794199993
 H         -6.8054988656       -0.4897388035        0.2500876755
 H         -5.8069567034       -1.7368614700       -0.5178836407
 H         -6.5857784950        3.6086033646        0.0858187012
 H         -4.8244426830        3.6676458586        0.2351077535
 H         -6.6845398245        1.4211909836        1.1084704857
 H         -5.6399532696        2.4421011129        2.1154473848
 O         -3.4861235663        1.3706549939        1.6459473701
 C         -2.3277598811        0.6151254094        1.5943196907
 O         -1.3691871305        1.1090174653        2.2246282411
 H          1.6078948147       -0.7325047994        0.9142463949
 C          1.1945897562       -0.7031377585       -0.0824885137
 C         -0.1516119925       -0.9750788418       -0.2806965378
 C         -0.6671636230       -0.9089053680       -1.5710451095
 C          0.1504010539       -0.5683180707       -2.6330286920
 C          1.4914040581       -0.2950769176       -2.4313409527
 C          2.0208841418       -0.3713840343       -1.1473979426
 N          3.3942114609       -0.1617397623       -0.9400833665
 S          3.9708440180        0.4454060370        0.5229109917
 O          3.8492937494       -0.5772660428        1.5309028034
 O          3.3570108586        1.7213839546        0.8164536907
 C          5.6889320444        0.6627876206        0.1001544636
 C          6.1797522952        1.9280835445       -0.1588116787
 C          7.5144731022        2.0710519396       -0.5054450124
 C          8.3297188273        0.9525354793       -0.5891803602
 C          7.8225990971       -0.3114552104       -0.3253692982
 C          6.4899969195       -0.4612383794        0.0231014092
 H          6.0540640458       -1.4210451695        0.2458901094
 H          8.4601615684       -1.1784450383       -0.3889891914
 H          9.3677045398        1.0667666818       -0.8589647229
 H          7.9122795376        3.0524678960       -0.7075189295
 H          5.5103352824        2.7690801173       -0.0737116729
 H          3.8409074527        0.2953770456       -1.7235661698
 H          2.1268576349       -0.0296028810       -3.2624437452
 H         -0.2614944461       -0.5142841452       -3.6295932464
 H         -1.7100022120       -1.1355670188       -1.7322065995
 C         -1.0186302513       -1.3496629311        0.8946935779
 H         -0.4953284922       -1.0094947077        1.8038302969
 C         -1.2051919632       -2.8569383621        1.0206291800
 C         -0.8985367473       -3.8210091512       -0.0815806857
 C         -0.0046561483       -3.7513793299        1.1175026642
 H         -0.0228146968       -4.5634841790        1.8285979091
 H          0.9660863603       -3.2929388534        0.9967318365
 H         -1.5527441289       -4.6715090009       -0.1960299411
 H         -0.5315712902       -3.4257803708       -1.0154791349
 H         -2.0483281351       -3.1060782532        1.6568618153
 O         -3.5501968057       -2.1173276093       -0.4540666479
