  62
        -98.92919145
 C          2.0425554110        0.6989082192        0.1718069063
 C          2.7134989812       -0.3253671082        0.8852806249
 C          3.9830775146       -0.8291056577        0.3297703729
 C          4.4197623225       -0.3217836403       -0.8376180540
 C          5.6864234602       -0.6466726547       -1.5839008668
 C          6.9309681365       -0.0081413664       -0.9469698397
 C          7.0050183946       -0.1224024123        0.5732785469
 H          6.1186373605        0.3402667513        1.0109255808
 H          7.8709393437        0.4550886600        0.9076130117
 C          7.1551258509       -1.5429047083        1.1125955071
 H          7.2927355737       -1.4662262654        2.1942630086
 H          8.0591565729       -1.9914143941        0.6946633538
 C          5.9788417584       -2.4861201454        0.8508067804
 H          6.1128077942       -3.3598434075        1.4954863020
 H          5.9894509907       -2.8542070268       -0.1716465601
 C          4.6090582045       -1.9042030376        1.1854043948
 H          4.6274993505       -1.5076675957        2.2071024844
 H          3.8791939780       -2.7227280869        1.2088020427
 H          6.9325551589        1.0545932924       -1.2011740460
 H          7.8175852507       -0.4626006386       -1.3923622535
 H          5.8039818729       -1.7229445704       -1.6697812353
 H          5.5667006628       -0.2443370546       -2.5923118314
 O          3.7286419599        0.6404712012       -1.5075295778
 C          2.5386061145        1.1771610975       -1.0422372967
 O          2.0565491232        2.0390771474       -1.7960627014
 H         -0.7823064951       -0.9193534801        1.1142246042
 C         -1.0993579908       -0.3663094616        0.2395700741
 C         -0.4248271398        0.8016597886       -0.1035367059
 C         -0.8399153101        1.4825492437       -1.2427687372
 C         -1.8909375725        1.0033500658       -2.0062552059
 C         -2.5523392306       -0.1609246116       -1.6620298919
 C         -2.1452928095       -0.8548761029       -0.5300154139
 N         -2.8038301726       -2.0410229692       -0.1674292639
 S         -4.4741258030       -2.0769607802       -0.2475234680
 O         -4.8767322103       -3.0754046101        0.7178698223
 O         -4.8913440076       -2.3125686236       -1.6073749427
 C         -5.0012005552       -0.4536988586        0.2732935801
 C         -4.6454946925       -0.0287487774        1.5382264102
 C         -5.0169322805        1.2412985319        1.9477383854
 C         -5.7344026673        2.0609597910        1.0896274664
 C         -6.0894141540        1.6174421196       -0.1746063162
 C         -5.7184556233        0.3485277781       -0.5903303728
 H         -5.9708529639       -0.0346862162       -1.5656647696
 H         -6.6495121525        2.2558440261       -0.8387050144
 H         -6.0184641500        3.0508941978        1.4099653143
 H         -4.7419297562        1.5881815798        2.9308299155
 H         -4.0925053133       -0.6920014507        2.1839359223
 H         -2.4612105270       -2.4612978695        0.6835771102
 H         -3.3596190234       -0.5519245918       -2.2597043527
 H         -2.1935075218        1.5448464454       -2.8896700400
 H         -0.3162205159        2.3657151311       -1.5621801026
 C          0.7362872576        1.2045040016        0.7716907818
 H          0.6407734742        0.6091613142        1.6930601502
 C          0.8097744938        2.6486067799        1.2533994464
 C          0.8675739634        3.8778813332        0.3989945298
 C         -0.3609528823        3.5848058727        1.2042762415
 H         -0.5648355516        4.1972981385        2.0697489309
 H         -1.2427134163        3.2533325493        0.6780541817
 H          0.8482512166        3.7695928504       -0.6714665905
 H          1.5184160874        4.6746912679        0.7314669414
 H          1.4180333435        2.6995829232        2.1535827437
 O          2.2727654839       -0.8081924146        1.9655436573
