  62
        -98.94142765
 C         -1.9892403832       -0.9064633610        0.2483024706
 C         -2.8677771815       -0.2644613534        1.1570052414
 C         -3.5351643115        0.9462359819        0.6671607005
 C         -3.2265295673        1.4292244441       -0.5496141674
 C         -3.7980895664        2.6696558456       -1.1809533968
 C         -5.1463426545        2.4487862175       -1.8807462354
 C         -6.3379421607        2.2373808098       -0.9457448903
 H         -6.3708139582        3.0446843103       -0.2134886978
 H         -7.2402309575        2.3133128408       -1.5556187186
 C         -6.3435175469        0.8831070843       -0.2228722530
 H         -7.3407207694        0.4417021430       -0.2834373769
 H         -5.6594146876        0.1982003600       -0.7294295798
 C         -5.9684683682        0.9531029773        1.2575788315
 H         -5.9698179215       -0.0630769108        1.6604210644
 H         -6.7206057865        1.5306152241        1.7992855038
 C         -4.5898925083        1.5691594838        1.5310227061
 H         -4.3251135917        1.3724763683        2.5729389878
 H         -4.6210106050        2.6475285952        1.3759972131
 H         -5.0537934959        1.5930547537       -2.5535359445
 H         -5.3433078100        3.3322926129       -2.4922444874
 H         -3.9007008985        3.4505932582       -0.4266578557
 H         -3.0709586490        3.0008031235       -1.9258261076
 O         -2.3123344777        0.8341404791       -1.3593342594
 C         -1.6822431663       -0.3510446180       -0.9960680070
 O         -0.8940844703       -0.7826158191       -1.8562680297
 O         -3.0786862689       -0.6807865120        2.3282264976
 C         -1.2991310072       -2.1758871555        0.7175002418
 C          0.1842734874       -2.0565400195        0.4804945588
 C          0.9011738497       -2.8764929410       -0.3795811498
 C          2.2562448911       -2.6715791026       -0.5734532414
 C          2.9227210707       -1.6528436186        0.0826997557
 C          2.2140531286       -0.8259519007        0.9445693865
 C          0.8602737097       -1.0376941115        1.1419355887
 H          0.3061085781       -0.3843580967        1.8066750981
 N          2.8908819307        0.2245967675        1.6101641910
 S          3.3396537955        1.5126181634        0.6186231835
 O          3.5782580057        2.6178906160        1.5228091372
 O          2.3666878985        1.7434544610       -0.4262572574
 C          4.8858062689        0.9817386710       -0.0823366158
 C          5.9698224632        0.8363616768        0.7615664748
 C          7.1774373934        0.4127204679        0.2302067372
 C          7.2792492888        0.1450212034       -1.1270961882
 C          6.1819032946        0.2992859457       -1.9607834892
 C          4.9702678315        0.7216743570       -1.4358597900
 H          4.0869795725        0.8484759328       -2.0416505256
 H          6.2623248958        0.0905761209       -3.0154965160
 H          8.2197480103       -0.1857310200       -1.5385652582
 H          8.0333257984        0.2920185526        0.8744074643
 H          5.8456214105        1.0611939544        1.8076447663
 H          2.3584290994        0.5961406906        2.3857716741
 H          3.9780708491       -1.4927913977       -0.0657983075
 H          2.8004867837       -3.3121369865       -1.2503706497
 H          0.3916640036       -3.6576298576       -0.9193293154
 H         -1.4668163741       -2.1845921871        1.8079945226
 C         -1.9039775829       -3.4635864698        0.1807089681
 C         -3.3650303006       -3.5441923563       -0.1441892830
 C         -2.3481579711       -3.6219912122       -1.2412079056
 H         -2.1886389497       -4.5763825976       -1.7215462480
 H         -2.2311213895       -2.7769665634       -1.9008906243
 H         -3.9044036997       -4.4395405268        0.1258994794
 H         -3.9468294655       -2.6384400216       -0.0500966295
 H         -1.4687511661       -4.3386984943        0.6536111983
