  62
        -98.94446752
 C         -1.8360008909       -0.0156794181       -0.4066697046
 C         -2.9700597089        0.4123765313       -1.1378125351
 C         -4.2636640264       -0.0911906086       -0.6638625804
 C         -4.3082822954       -0.9269709035        0.3897141064
 C         -5.5487092395       -1.5467596615        0.9742496210
 C         -6.2874113923       -0.6437057342        1.9715685913
 C         -7.0355745208        0.5364267320        1.3501506248
 H         -7.6822192628        0.1742886319        0.5503095746
 H         -7.6802409209        0.9513643731        2.1275269745
 C         -6.1266194617        1.6519533127        0.8154628362
 H         -6.5087414879        2.6213697169        1.1432007440
 H         -5.1264829889        1.5420999265        1.2410706188
 C         -6.0129558973        1.7013522892       -0.7081877611
 H         -6.9863832206        1.9428165858       -1.1406782119
 H         -5.3181369327        2.5020243205       -0.9737026350
 C         -5.5041902943        0.4019159866       -1.3458382950
 H         -6.2825240222       -0.3603138100       -1.3191648619
 H         -5.2501343584        0.6079682424       -2.3884810720
 H         -7.0114620493       -1.2673854567        2.5009992161
 H         -5.5682299908       -0.2738462018        2.7061179301
 H         -6.2276131541       -1.8359357470        0.1714826640
 H         -5.2265976047       -2.4486216054        1.4993964359
 O         -3.1920638046       -1.3332806003        1.0523870971
 C         -1.9328148846       -0.8774596355        0.6855520489
 O         -1.0046437314       -1.3111944327        1.3945646163
 O         -2.9023154096        1.1699350536       -2.1424545058
 C         -0.4654120118        0.4831779503       -0.8253847351
 C          0.4565555738       -0.6758789295       -1.1085177082
 C          0.0060024319       -1.7102564934       -1.9252755941
 C          0.8151783018       -2.7938363710       -2.2033491019
 C          2.0931660200       -2.8678379326       -1.6778061774
 C          2.5602986730       -1.8333068839       -0.8763103833
 C          1.7467754391       -0.7406633971       -0.6056485069
 H          2.1227954909        0.0430937485        0.0297821925
 N          3.8700171112       -1.8613566024       -0.3849010129
 S          4.3539670777       -1.0405372759        0.9830274651
 O          5.6553043902       -1.6021756497        1.2819985819
 O          3.3827458090       -1.1051670970        2.0492400558
 C          4.5698184674        0.6432331495        0.4430694830
 C          5.0343263213        0.8937759419       -0.8329097159
 C          5.2399390013        2.2072259714       -1.2240173160
 C          4.9895250327        3.2425145717       -0.3365586863
 C          4.5297570053        2.9744137430        0.9434380013
 C          4.3162757812        1.6629045276        1.3389151937
 H          3.9457677129        1.4097693806        2.3199834899
 H          4.3353408690        3.7800241676        1.6338116117
 H          5.1510331875        4.2638358429       -0.6431115931
 H          5.5958193103        2.4192825549       -2.2193067504
 H          5.2193483005        0.0673210381       -1.4982396322
 H          4.3720906107       -2.7258007480       -0.5187855247
 H          2.7233741941       -3.7190230270       -1.8853513759
 H          0.4477674518       -3.5925068912       -2.8301713953
 H         -0.9956499391       -1.6571356448       -2.3298651507
 H         -0.6317691403        1.0272147756       -1.7676510740
 C          0.0792604682        1.4529998852        0.2022874317
 C          0.9929360397        2.5630947962       -0.2212962724
 C         -0.4146014220        2.8676557086        0.1925452064
 H         -0.5815280224        3.3615329655        1.1380582173
 H         -1.1286516449        3.1357436172       -0.5723844844
 H          1.7974199859        2.8488186716        0.4392015360
 H          1.2392568599        2.6323760137       -1.2698595826
 H          0.2485060825        0.9862902044        1.1674114632
