  62
        -98.94210867
 C         -0.5936450510       -1.8817290998        0.5244310996
 C         -1.5235309008       -1.6909592990       -0.5267327104
 C         -2.7104657601       -0.8878695279       -0.1981486604
 C         -2.8634092797       -0.4172069577        1.0524174095
 C         -3.9479782589        0.5178254433        1.5054859495
 C         -3.6052626176        1.9577980029        1.0695756794
 C         -4.5690662970        2.5531261238        0.0426979793
 H         -5.4971280568        2.8361741246        0.5451085593
 H         -4.1061391962        3.4653237133       -0.3403502007
 C         -4.9307097678        1.6455214140       -1.1371316706
 H         -5.3767754672        2.2827360144       -1.9038446807
 H         -5.7034524785        0.9378331747       -0.8316184806
 C         -3.7669933085        0.8639538229       -1.7615333306
 H         -3.8985256485        0.8631173630       -2.8458637906
 H         -2.8157881781        1.3594927721       -1.5578532506
 C         -3.6776676998       -0.6078828171       -1.3130577705
 H         -4.6725635402       -0.9728236662       -1.0427689805
 H         -3.3206415004       -1.2099131775       -2.1539629304
 H         -2.5924695676        1.9684446020        0.6586414594
 H         -3.5938920970        2.6108065030        1.9443368693
 H         -4.9032594092        0.2076865241        1.0879423295
 H         -4.0030458790        0.4538412734        2.5927550595
 O         -1.9805289100       -0.6765610485        2.0517912296
 C         -0.8094050906       -1.3796546795        1.8054207796
 O         -0.0570455907       -1.4871758701        2.7955015596
 H          0.5254551807        0.0661332892       -0.3160634505
 C          1.2712235503       -0.4058185415       -0.9344226104
 C          1.5009039291       -1.7677325617       -0.8078349803
 C          2.4484736686       -2.3546142626       -1.6388253103
 C          3.1251658593       -1.5919398433       -2.5750928103
 C          2.8808352605       -0.2361896231       -2.7047521004
 C          1.9354452810        0.3599951478       -1.8781918104
 N          1.6257863722        1.7209114081       -1.9868448005
 S          0.9881613430        2.5803243087       -0.7103946106
 O         -0.3786228573        2.1956812100       -0.4607882606
 O          1.1918316442        3.9634233385       -1.0862595407
 C          2.0254391426        2.1814818079        0.6841526095
 C          3.3654573029        2.5079749567        0.6020341395
 C          4.2032386226        2.1745840560        1.6530448095
 C          3.6917940720        1.5159321565        2.7616205495
 C          2.3439114717        1.2018883177        2.8334894695
 C          1.5010350420        1.5411410284        1.7870778895
 H          0.4487913118        1.3023958394        1.8159979895
 H          1.9362929612        0.6778682981        3.6835435495
 H          4.3454202217        1.2458849960        3.5759690195
 H          5.2512864528        2.4222795450        1.6037806895
 H          3.7265826034        3.0240029963       -0.2725901506
 H          2.2256310927        2.2712462775       -2.5812092805
 H          3.4017303110        0.3516556864       -3.4444234204
 H          3.8544009889       -2.0614748740       -3.2175882003
 H          2.6486805376       -3.4107469628       -1.5585487002
 C          0.7389224984       -2.5470088910        0.2415862397
 H          1.3102312884       -2.4978926115        1.1812423497
 C          0.5488827471       -4.0031356308       -0.1357613702
 C          1.5490112962       -5.0369590717        0.2844920898
 C          0.2029786562       -4.9869136705        0.9403603798
 H         -0.5130951745       -5.7638693098        0.7188475499
 H          0.1386081565       -4.6095119904        1.9508503898
 H          2.4005754765       -4.7078257324        0.8607974798
 H          1.7576162554       -5.8547860919       -0.3888147501
 H          0.0611611170       -4.1206419905       -1.0963885002
 O         -1.3615260812       -2.1516412892       -1.6872954104
