  62
        -98.94647728
 C         -2.2933405327       -0.6343115932       -0.0768384136
 C         -1.3912156003       -0.8471896570        0.9885736060
 C         -0.6294109108       -2.1074426133        0.9649122267
 C         -0.7973672240       -2.9490048401       -0.0696946162
 C         -0.0605204736       -4.2339792858       -0.3293316147
 C          1.1767632784       -3.9796547262       -1.2087134641
 C          2.4537419619       -3.6532393360       -0.4370148782
 H          2.7874175496       -4.5414014551        0.1046386635
 H          3.2212594054       -3.4049324756       -1.1738966331
 C          2.3243564704       -2.4853199824        0.5439137217
 H          1.7466553639       -1.6891526831        0.0709611568
 H          3.3245310353       -2.0866706598        0.7289928584
 C          1.6917471423       -2.8867410563        1.8841382152
 H          2.3217168023       -2.5248981606        2.6990883588
 H          1.6818785081       -3.9743822585        1.9580500013
 C          0.2796915608       -2.3409196413        2.1410403374
 H         -0.2337293729       -3.0052134410        2.8446892016
 H          0.3528040225       -1.3641855985        2.6282065726
 H          1.3632089147       -4.8652444661       -1.8202417499
 H          0.9480043529       -3.1522533926       -1.8866614758
 H          0.2148037625       -4.7162403421        0.6043146132
 H         -0.7488984200       -4.8842076828       -0.8733471186
 O         -1.6669160833       -2.6987520867       -1.0875633167
 C         -2.4212728911       -1.5416170819       -1.1263592956
 O         -3.1630073610       -1.4371660137       -2.1261200987
 O         -1.2174607515       -0.0127152549        1.9174070620
 C         -3.0715271436        0.6682979163       -0.1500737713
 C         -2.0925178532        1.8186725824       -0.1549141168
 C         -2.2330917884        2.9632318895        0.6189903683
 C         -1.2603542436        3.9484794065        0.5912658480
 C         -0.1234567222        3.8046487830       -0.1832471146
 C          0.0188191840        2.6688739259       -0.9729622611
 C         -0.9791506415        1.7084503205       -0.9782228348
 H         -0.8634577531        0.8338428099       -1.6013530216
 N          1.1588650643        2.4700381063       -1.7757766309
 S          2.0565045847        1.0666329165       -1.6082534547
 O          3.1346393545        1.2055614493       -2.5636030280
 O          1.2101454304       -0.0877118173       -1.7670340295
 C          2.7339922214        1.1294545949        0.0418602940
 C          1.8931686092        0.9847581693        1.1271991563
 C          2.4325873766        1.0553776531        2.4022423717
 C          3.7918505039        1.2666054429        2.5718305301
 C          4.6221502252        1.4133927710        1.4708941968
 C          4.0896358763        1.3485329998        0.1935692439
 H          4.6947150113        1.4544512285       -0.6922796175
 H          5.6795235350        1.5773552407        1.6030287717
 H          4.2044638125        1.3159055422        3.5671939560
 H          1.7769951324        0.9425084671        3.2511083860
 H          0.8385896662        0.8127269134        0.9801801475
 H          1.7832085286        3.2640579145       -1.8071483982
 H          0.6475826703        4.5601849756       -0.1793798602
 H         -1.3797590181        4.8322138420        1.1992995982
 H         -3.0980414032        3.0795606367        1.2512231648
 H         -3.5982785755        0.6562802718       -1.1157533759
 C         -4.0908990415        0.7456284498        0.9669144996
 C         -5.3605188590        1.5190290534        0.7794267135
 C         -5.3924976329        0.0212154565        0.8084689119
 H         -5.8171569271       -0.4715183552        1.6701097628
 H         -5.5535481713       -0.5081343624       -0.1197703709
 H         -5.7686379962        2.0539438579        1.6236645252
 H         -5.5125366346        2.0090617764       -0.1704662593
 H         -3.6318498448        0.7406560899        1.9486465175
