  62
        -98.94738494
 C         -2.5661521392       -0.1445310751       -0.3970040605
 C         -2.1618586627       -0.7093700108        0.8369019565
 C         -1.7115882138       -2.1075003349        0.7843845687
 C         -1.6914665734       -2.7494287824       -0.3976654688
 C         -1.2304493267       -4.1635349372       -0.6021944107
 C          0.2618976505       -4.2274289579       -0.9517459018
 C          1.1587737828       -3.4365876954        0.0011100623
 H          2.1923075050       -3.6091245949       -0.3097263787
 H          0.9696284955       -2.3671811696       -0.1247452564
 C          1.0003756564       -3.8081533562        1.4820502378
 H          1.9940468040       -3.8841675518        1.9282961478
 H          0.5266695653       -4.7871708622        1.5713616054
 C          0.2206403147       -2.7830771131        2.3082376853
 H          0.6175781109       -1.7843633326        2.1112309616
 H          0.3833945646       -3.0028810780        3.3672172556
 C         -1.2955625510       -2.7518359600        2.0765504476
 H         -1.7025962865       -3.7632912771        2.1509005811
 H         -1.7394621589       -2.1418778773        2.8689812047
 H          0.5684324803       -5.2755690473       -0.9560204278
 H          0.4006127338       -3.8259202406       -1.9584435373
 H         -1.4269029975       -4.7358790179        0.3025205868
 H         -1.8044949751       -4.5927823692       -1.4256158782
 O         -2.0762757477       -2.1694790337       -1.5646696279
 C         -2.5038527449       -0.8529465474       -1.5952237313
 O         -2.8093988540       -0.4364104039       -2.7331716995
 H         -0.4221716296        1.0441335466       -0.9877786186
 C         -0.6043998467        1.9009754412       -0.3547621777
 C         -1.9037181091        2.2037941249        0.0295772344
 C         -2.1143386709        3.3211230742        0.8276819543
 C         -1.0433904204        4.0907132762        1.2489840135
 C          0.2527529507        3.7567410577        0.9015939017
 C          0.4719375473        2.6494630305        0.0901881743
 N          1.7715655226        2.2704233951       -0.3006156458
 S          2.0838990808        0.6054386220       -0.2831527638
 O          1.6278615183        0.0293723805       -1.5243795989
 O          1.5662790792        0.0239079033        0.9324453717
 C          3.8667771126        0.6060602397       -0.2540953532
 C          4.5317876255        0.2896231320        0.9148552380
 C          5.9178126159        0.3198754972        0.9264005306
 C          6.6101663462        0.6671100958       -0.2236728432
 C          5.9282094893        0.9808474033       -1.3903893276
 C          4.5430107309        0.9504591533       -1.4094273230
 H          3.9696990697        1.1764077788       -2.2934602471
 H          6.4698391717        1.2475421896       -2.2834891806
 H          7.6883372554        0.6908110692       -0.2119686177
 H          6.4501374301        0.0725349362        1.8306240920
 H          3.9494278737        0.0208676222        1.7815948229
 H          2.4859470891        2.7714155105        0.2120188199
 H          1.0874652790        4.3439257611        1.2535447151
 H         -1.2201123321        4.9534489451        1.8733539676
 H         -3.1156865278        3.5827508960        1.1285953355
 C         -3.0152980206        1.3044707520       -0.4567876814
 H         -3.1891179815        1.5239786245       -1.5214136869
 C         -4.3149947626        1.4904440880        0.2989293853
 C         -5.3069819440        2.5234460306       -0.1420171992
 C         -5.5950983537        1.0687086692       -0.3555432447
 H         -6.3526791845        0.5953126661        0.2505707348
 H         -5.5284942601        0.6731267826       -1.3589576640
 H         -5.0569497163        3.1202963236       -1.0061698282
 H         -5.8728532047        3.0495899528        0.6119468529
 H         -4.2075542223        1.2983032615        1.3602386748
 O         -2.1934739418       -0.0834935204        1.9292790679
