  62
        -98.93890440
 C         -1.8072052093       -0.4646670313       -0.4862187998
 C         -2.8690952691       -1.2409516206        0.0313824916
 C         -4.2296161392       -0.7064810012       -0.1524414494
 C         -4.3956414395        0.4717045476       -0.7823434114
 C         -5.6502826197        1.2368132867       -1.1496018327
 C         -6.9964517296        0.8780164175       -0.5256565921
 C         -7.1025875697        1.1619915601        0.9722456574
 H         -7.1027982999        2.2447849503        1.1210386355
 H         -8.0619997996        0.7777986805        1.3255475880
 C         -5.9855469795        0.5790165618        1.8341842684
 H         -5.0323531296        1.0327509515        1.5547492376
 H         -6.1833708296        0.8602692236        2.8721443279
 C         -5.8465382092       -0.9412146082        1.7832574010
 H         -6.8047210591       -1.4060151280        2.0231349218
 H         -5.1308359791       -1.2319803068        2.5568818915
 C         -5.3424875491       -1.5165259004        0.4481292220
 H         -6.1559660490       -1.6383879818       -0.2629627078
 H         -4.9269621188       -2.5091966300        0.6443300337
 H         -7.2452774893       -0.1579233129       -0.7360370003
 H         -7.7464659597        1.4922288565       -1.0314814932
 H         -5.4280150599        2.2882652271       -0.9412265345
 H         -5.7400866296        1.1524818548       -2.2383773926
 O         -3.3365799596        1.1852724370       -1.2669912626
 C         -2.0279314595        0.7511643776       -1.1298450719
 O         -1.1794337097        1.5236196869       -1.6141824932
 O         -2.6908065089       -2.3400309596        0.6219936935
 C         -0.3822023892       -0.9672540007       -0.3300153389
 C          0.4206817106        0.0385478408        0.4552848794
 C         -0.0435665795        0.4111412529        1.7157568687
 C          0.6226688603        1.3604870643        2.4636951871
 C          1.7732412402        1.9547173538        1.9742629661
 C          2.2492679903        1.5858705317        0.7227561367
 C          1.5822334805        0.6218153003       -0.0240586116
 H          1.9663602605        0.3677005187       -0.9973442312
 N          3.4033549301        2.1863537511        0.2008973657
 S          4.4998661603        1.3001161398       -0.6876698328
 O          5.7305674202        2.0564149002       -0.5929623441
 O          4.0096522304        1.0635558074       -2.0217116424
 C          4.6714731407       -0.2457763687        0.1870593199
 C          5.0253382706       -0.2116548863        1.5218306899
 C          5.1551264709       -1.4058845551        2.2112905619
 C          4.9324840012       -2.6088201063        1.5581773540
 C          4.5850996012       -2.6266757287        0.2167164540
 C          4.4518020509       -1.4341619399       -0.4768062280
 H          4.1800715109       -1.4014342617       -1.5190489781
 H          4.4159912714       -3.5622020296       -0.2923365244
 H          5.0327219214       -3.5377211453        2.0971080956
 H          5.4283090209       -1.3958996132        3.2541231119
 H          5.2026648104        0.7381082846        1.9992636082
 H          3.8571650900        2.8469490722        0.8136495346
 H          2.2897234900        2.7079552849        2.5494695648
 H          0.2457720002        1.6429293059        3.4350974666
 H         -0.9469429394       -0.0484556766        2.0930207495
 H         -0.4622386990       -1.8874163097        0.2671750727
 C          0.2009467209       -1.3146504029       -1.6822752083
 C          1.2637565211       -2.3638428529       -1.7994359665
 C         -0.1256456088       -2.6483861540       -2.2828568460
 H         -0.3026741588       -2.7061356959       -3.3464364359
 H         -0.7456217886       -3.3141724131       -1.7004138948
 H          2.0395394711       -2.2237209540       -2.5369751367
 H          1.5946199012       -2.8425520812       -0.8904931256
 H          0.2457502507       -0.4633376340       -2.3528922398
