  62
        -98.94329270
 C         -1.0960666302       -0.7042625587        0.9121439401
 C         -1.6784965403       -0.7213625293       -0.3800317299
 C         -2.3750207601        0.5093869306       -0.7862607606
 C         -2.3281381699        1.5917665510        0.0087850888
 C         -3.0219489297        2.8937763510       -0.2662605219
 C         -4.4306768497        2.9146183616        0.3440619981
 C         -5.2643866399        1.6754117715        0.0184708588
 H         -4.8075687600        0.8037461317        0.4925162793
 H         -6.2456834698        1.8141241520        0.4771620588
 C         -5.4355333200        1.4017890307       -1.4821789510
 H         -6.4811778500        1.1540797207       -1.6764080108
 H         -5.2041757798        2.3024268703       -2.0520732415
 C         -4.5963100102        0.2384086602       -2.0140264503
 H         -4.7567939003       -0.6441100294       -1.3894553498
 H         -4.9494021303       -0.0041175903       -3.0198471702
 C         -3.0864355701        0.4935250299       -2.1093233105
 H         -2.8998984100        1.4203403996       -2.6566058111
 H         -2.6405676203       -0.3293540405       -2.6764011001
 H         -4.3357213096        2.9877742822        1.4299173980
 H         -4.9474728295        3.8072582114       -0.0129590324
 H         -2.4310175995        3.6986291611        0.1747945476
 H         -3.0754654297        3.0479128804       -1.3424972320
 O         -1.6652644498        1.6068415716        1.1934730488
 C         -1.0425651600        0.4643950018        1.6741506494
 O         -0.4732257900        0.6215610223        2.7729257493
 O         -1.6374995305       -1.7081780798       -1.1593559693
 C         -0.3352857604       -1.9021540785        1.4607251808
 C          0.6348671595       -2.3689320393        0.4037100710
 C          0.6813836692       -3.6532507096       -0.1183961082
 C          1.5740652891       -3.9564312103       -1.1328126781
 C          2.4162824793       -2.9918367108       -1.6543748687
 C          2.3817263995       -1.7035694704       -1.1302085694
 C          1.5188517096       -1.4164121597       -0.0882150796
 H          1.4870511398       -0.4171424495        0.3195499098
 N          3.2235309697       -0.6954230409       -1.6204997601
 S          2.7698984999        0.9123796692       -1.5503968710
 O          1.3513465500        1.1009377294       -1.7480144310
 O          3.6344581100        1.5610311285       -2.5150199614
 C          3.2563489901        1.4171158201        0.0860035587
 C          2.3404740302        2.0217976508        0.9228234784
 C          2.7381986103        2.3983461214        2.1957905082
 C          4.0430241803        2.1704999814        2.6045281083
 C          4.9553376002        1.5711310908        1.7486924586
 C          4.5611653501        1.1884974201        0.4770326688
 H          5.2382102900        0.7194071896       -0.2170909709
 H          5.9691429401        1.3972934308        2.0714722486
 H          4.3472691504        2.4614282520        3.5975736981
 H          2.0194518004        2.8501107319        2.8607403479
 H          1.3286457502        2.1715206607        0.5759111583
 H          3.7259261096       -0.9213423715       -2.4660114499
 H          3.0875534992       -3.2262206913       -2.4664171286
 H          1.5980208689       -4.9560108906       -1.5400384975
 H         -0.0000402809       -4.4061635692        0.2422720822
 H          0.2550154197       -1.4979716281        2.3001199905
 C         -1.2046797406       -3.0077516680        2.0372451414
 C         -2.5606830505       -2.7017387774        2.5987195813
 C         -2.4336425007       -3.5160476382        1.3481077518
 H         -2.6492229809       -4.5732360781        1.4042479324
 H         -2.7005499007       -3.0657703387        0.4058233015
 H         -2.8645065606       -3.1956366269        3.5094832716
 H         -2.9161265204       -1.6846841574        2.5130246607
 H         -0.6156142807       -3.7397539378        2.5812963218
