  62
        -98.94309943
 C         -2.0578896411       -1.3769502383        0.3227146983
 C         -2.0609801614       -0.2459790451        1.1810651315
 C         -3.0422525859        0.7994419609        0.8781564413
 C         -3.8830985348        0.6394794442       -0.1598675588
 C         -4.9769973237        1.5877644718       -0.5702061212
 C         -4.5046142405        2.7446421592       -1.4609217762
 C         -3.6792465528        3.8159737540       -0.7478578091
 H         -3.6022955439        4.6664525747       -1.4282069051
 H         -4.2161359958        4.1564085541        0.1380730266
 C         -2.2646319549        3.3659074758       -0.3566414228
 H         -2.0007216551        2.4649615518       -0.9150687212
 H         -1.5497247758        4.1403132515       -0.6410656240
 C         -2.0728280405        3.0937049795        1.1354066144
 H         -2.1975284333        4.0219234410        1.6973171431
 H         -1.0511598109        2.7369454090        1.2896088696
 C         -3.0313280912        2.0440671779        1.7130734496
 H         -2.6811197649        1.7714622932        2.7115925366
 H         -4.0372215849        2.4555616582        1.7957123136
 H         -3.9279574397        2.3324560996       -2.2921763538
 H         -5.3958726880        3.2190436881       -1.8781951338
 H         -5.7050373375        0.9972016677       -1.1306402360
 H         -5.4655519779        1.9878362392        0.3188707886
 O         -3.8431853572       -0.4520863254       -0.9659397245
 C         -2.9136613843       -1.4666311400       -0.7757358785
 O         -2.9759832254       -2.3608136125       -1.6413884782
 O         -1.2831151029       -0.1259643390        2.1655219806
 C         -1.0405414406       -2.4603096093        0.6409150464
 C          0.2220596783       -2.2218659121       -0.1518057222
 C          0.2584158272       -2.3909061699       -1.5317577505
 C          1.4226107776       -2.1391781630       -2.2349686409
 C          2.5694860559       -1.7187138506       -1.5832456388
 C          2.5394511111       -1.5339524440       -0.2070436061
 C          1.3687528897       -1.7872766448        0.4972074525
 H          1.3432712742       -1.6306362581        1.5670834258
 N          3.6992554816       -1.1239157465        0.4761273161
 S          4.5428692609        0.2327726160       -0.0153675558
 O          5.0223840848        0.0339794752       -1.3590445744
 O          5.5470823167        0.4381699611        1.0021195880
 C          3.3649217519        1.5710060819        0.0226366313
 C          2.5011172811        1.7434157088       -1.0406907025
 C          1.5693430867        2.7675787137       -0.9842759442
 C          1.5193826657        3.5973564033        0.1252186063
 C          2.3898706911        3.4073194807        1.1870932482
 C          3.3190816849        2.3811938715        1.1397365907
 H          4.0200087010        2.2026459512        1.9392676099
 H          2.3448834424        4.0530390379        2.0493189315
 H          0.7984600564        4.3986295817        0.1627211495
 H          0.8856095715        2.9139379398       -1.8052610028
 H          2.5743163133        1.0863805541       -1.8919341407
 H          3.5875907444       -1.1069195521        1.4798138073
 H          3.4818634689       -1.5209677527       -2.1223320407
 H          1.4401367800       -2.2757911990       -3.3059347024
 H         -0.6373060629       -2.7020793662       -2.0471958190
 H         -0.7962343212       -2.3178151488        1.7024954335
 C         -1.5580055722       -3.8719640882        0.4587957026
 C         -0.8625360861       -4.9925214272        1.1699354229
 C         -2.2285367873       -4.5591823061        1.6086270587
 H         -3.0684565792       -5.2052408900        1.4021248483
 H         -2.3171810249       -4.0132852922        2.5367590329
 H         -0.7608412306       -5.9394443210        0.6626152740
 H         -0.0238881798       -4.7408436140        1.8016465826
 H         -1.9496105246       -4.0695858841       -0.5296839874
