  62
        -98.93802035
 C          2.3802892037        1.2097090910       -0.0954159695
 C          3.1643238775        0.4988406226        0.8392515846
 C          4.0206729468       -0.5811672350        0.3105982964
 C          3.9981368432       -0.8340148020       -1.0116834091
 C          4.7428654605       -1.9025198471       -1.7670344029
 C          4.1224079212       -3.2975189245       -1.5855926562
 C          3.7172502820       -3.6407590950       -0.1543018528
 H          3.0089817416       -2.8927029194        0.2076577801
 H          3.1907545711       -4.5986840031       -0.1781075052
 C          4.8718467706       -3.7674954360        0.8368163465
 H          4.4471101277       -4.0945365712        1.7895853624
 H          5.5542009667       -4.5479750126        0.4929391563
 C          5.6799931916       -2.4931121560        1.0896057868
 H          6.3666616223       -2.2957891457        0.2709583790
 H          6.2964057322       -2.6698290842        1.9759297164
 C          4.8417496037       -1.2530825989        1.3850928040
 H          4.1444343971       -1.4779524832        2.2006374126
 H          5.5032054718       -0.4727262102        1.7810146743
 H          3.2246348797       -3.3505372548       -2.2063002645
 H          4.8312014829       -4.0412303293       -1.9531181965
 H          4.6887450246       -1.6336701759       -2.8241571584
 H          5.7896608530       -1.9026246990       -1.4784372783
 O          3.2095205804       -0.1319869434       -1.8750957964
 C          2.3872950684        0.8968805425       -1.4542723255
 O          1.7295220758        1.4386349092       -2.3617066663
 H          0.2224373652        0.0129568332        0.7150960168
 C         -0.4479152370        0.7633351520        0.3121925718
 C          0.0404412536        2.0407285399        0.0647439564
 C         -0.8360553982        2.9955009640       -0.4336076792
 C         -2.1556790249        2.6682436761       -0.6947031345
 C         -2.6305360945        1.3906341229       -0.4647852003
 C         -1.7666111420        0.4304323431        0.0458891532
 N         -2.2394168640       -0.8750980367        0.2766353695
 S         -3.5935516973       -1.0474773579        1.2580990102
 O         -3.6870741876        0.0271459917        2.2192706795
 O         -3.5015961116       -2.3867575503        1.7975153420
 C         -4.9620400878       -0.9720256332        0.1223961082
 C         -5.0022386318       -1.8883651183       -0.9101684616
 C         -6.0649213627       -1.8483863952       -1.7985432068
 C         -7.0648613710       -0.9005230363       -1.6382996773
 C         -7.0116726147        0.0100182360       -0.5940693231
 C         -5.9506455294       -0.0236159074        0.2974859550
 H         -5.8636098826        0.6671397209        1.1209010964
 H         -7.7902423126        0.7456121893       -0.4711384929
 H         -7.8905100822       -0.8717608321       -2.3316520052
 H         -6.1097234673       -2.5549765085       -2.6115988052
 H         -4.2073949753       -2.6104345722       -0.9966224013
 H         -1.5169583758       -1.5183713050        0.5667549732
 H         -3.6546527057        1.1299629193       -0.6761245801
 H         -2.8230486609        3.4196386611       -1.0881226895
 H         -0.4852004063        3.9967278493       -0.6218491857
 C          1.4849034966        2.3331740866        0.3908150824
 H          1.5892211190        2.3372294971        1.4868554443
 C          1.9709131728        3.6625818374       -0.1480096122
 C          1.7668549208        4.9205754492        0.6406294265
 C          3.1371082333        4.3271095399        0.5180925100
 H          3.8665372700        4.8295764495       -0.0991764917
 H          3.5614435358        3.8333129599        1.3803388128
 H          1.5575620071        5.8354748658        0.1071780852
 H          1.2631749700        4.8383926652        1.5920472068
 H          1.9139883516        3.7173970149       -1.2293612119
 O          3.1468763559        0.7444615281        2.0775972279
