  62
        -98.93513934
 C          2.5545602987        1.3809781492        0.2484352518
 C          2.3447348046        0.2599018712       -0.5916315577
 C          3.4113358892       -0.7624338966       -0.6047329023
 C          4.5095336313       -0.5954726735        0.1534530256
 C          5.7561573072       -1.4417513997        0.3042403779
 C          5.7743606775       -2.8957777001       -0.1610693680
 C          4.8495624383       -3.8316350473        0.6163501544
 H          5.2375187971       -3.9407955896        1.6321803939
 H          4.8822089046       -4.8141589198        0.1404032463
 C          3.3939240450       -3.3831991703        0.7260141104
 H          3.3355997766       -2.4595182557        1.3057451588
 H          2.8492532377       -4.1473659527        1.2872250799
 C          2.6677974008       -3.1803989696       -0.6028971475
 H          1.6077064032       -3.0259692323       -0.3799173899
 H          2.7514627099       -4.0842196810       -1.2098166718
 C          3.1415630599       -1.9796906028       -1.4410564524
 H          2.3329920050       -1.7114530802       -2.1276568112
 H          4.0109757951       -2.2334578388       -2.0430948796
 H          6.7980802933       -3.2530889498       -0.0200135819
 H          5.5646914075       -2.9548792891       -1.2250407203
 H          6.0106455589       -1.4039420977        1.3680744914
 H          6.5505748774       -0.9012870842       -0.2223680988
 O          4.6750651966        0.5109803650        0.9355539726
 C          3.7095930850        1.4956008192        1.0266901429
 O          3.9930641726        2.4114343351        1.8240404643
 O          1.3308840356        0.1003950505       -1.3200054062
 C          1.5174944961        2.4783803208        0.4339413352
 C          0.1840667764        1.8439119961        0.7381125966
 C         -0.0738932801        1.3807795577        2.0244777882
 C         -1.2598075005        0.7328807921        2.3156766554
 C         -2.2036547174        0.5186361626        1.3263678143
 C         -1.9450259364        0.9585163349        0.0354842727
 C         -0.7681455522        1.6395510819       -0.2469567949
 H         -0.5706774206        1.9684624923       -1.2552550432
 N         -2.8869537041        0.7239882270       -0.9805297799
 S         -3.5737877059       -0.8033481925       -1.0962433749
 O         -2.7077517866       -1.8370679438       -0.5795373733
 O         -3.9766704343       -0.9304300225       -2.4804862229
 C         -5.0378663838       -0.6767076406       -0.0873817677
 C         -5.9080183642        0.3689499984       -0.3266369619
 C         -7.0581014942        0.4716291853        0.4393512040
 C         -7.3200766486       -0.4696082347        1.4238310297
 C         -6.4387430936       -1.5155755398        1.6497620789
 C         -5.2857535778       -1.6229861397        0.8875207098
 H         -4.5691473254       -2.4162374673        1.0311662757
 H         -6.6436274008       -2.2471260452        2.4149162037
 H         -8.2163200368       -0.3878704055        2.0182943923
 H         -7.7459325704        1.2836034234        0.2665575008
 H         -5.6696747824        1.0770087498       -1.1025103292
 H         -2.5778766545        1.0389200911       -1.8892384400
 H         -3.1214903558       -0.0043344513        1.5405499400
 H         -1.4489516063        0.3832088915        3.3193270714
 H          0.6749792064        1.5246972335        2.7916096872
 H          1.8466734585        3.0254645427        1.3315227358
 C          1.4501957028        3.4989792020       -0.6921609888
 C          2.7122418751        4.0254023095       -1.3065391844
 C          1.7786998193        3.1810925364       -2.1183487677
 H          1.1977447403        3.6623564017       -2.8921456596
 H          2.0721324538        2.1721993643       -2.3605725838
 H          2.7802709006        5.0799904113       -1.5266444547
 H          3.6423070332        3.5854213429       -0.9763976275
 H          0.6554209553        4.2206871739       -0.5282435353
