  62
        -98.94850370
 C          1.2526878171        1.5135150335        0.5042739918
 C          2.1609543121        1.1626262786       -0.5234041994
 C          3.1864538812        0.1745373834       -0.1605871337
 C          3.2121555598       -0.3253066120        1.0880147749
 C          4.1797652261       -1.3626198600        1.5779588601
 C          3.6142952231       -2.7800436220        1.4159533380
 C          3.0462392698       -3.0711982494        0.0264517149
 H          2.7284022738       -4.1167829471        0.0216228728
 H          2.1424160934       -2.4754548368       -0.1267493735
 C          4.0292564036       -2.8323487732       -1.1281960825
 H          3.9486027362       -3.6667914594       -1.8282235394
 H          5.0517465300       -2.8253955827       -0.7477133161
 C          3.7766439747       -1.5547338020       -1.9312476218
 H          2.7207957540       -1.5057992961       -2.2119003466
 H          4.3597316465       -1.6132033647       -2.8544939435
 C          4.1519324342       -0.2410567091       -1.2336106578
 H          5.1678255838       -0.3095170167       -0.8392000767
 H          4.1254940907        0.5540639263       -1.9845616335
 H          4.4080861089       -3.4948351105        1.6429571389
 H          2.8107730003       -2.9204683045        2.1429003945
 H          5.1135024071       -1.2683167087        1.0268703992
 H          4.3727622373       -1.1788385642        2.6365836660
 O          2.3260563307        0.0389570391        2.0495413025
 C          1.3049652455        0.9332606523        1.7703961286
 O          0.5194507538        1.1308969214        2.7211481653
 O          2.1181269828        1.6468195156       -1.6847651726
 C          0.1167939171        2.4754220438        0.2126486728
 C         -0.7809811196        1.9197287189       -0.8685747635
 C         -1.4624773096        2.7192484402       -1.7783916563
 C         -2.2918479071        2.1459312366       -2.7270561813
 C         -2.4757530222        0.7757024548       -2.7812878769
 C         -1.8004525909       -0.0317447745       -1.8734160884
 C         -0.9659220332        0.5466580995       -0.9316848364
 H         -0.4262400221       -0.0934077126       -0.2521789247
 N         -1.9391490326       -1.4271193909       -1.8891886537
 S         -1.8706951520       -2.2932235942       -0.4614735754
 O         -0.5216663873       -2.3364382404        0.0429523282
 O         -2.4599593459       -3.5718920444       -0.7979704338
 C         -2.9517371642       -1.4148058314        0.6531509348
 C         -2.4470296309       -0.6656852795        1.6955787667
 C         -3.3280729551        0.0414706896        2.4997346187
 C         -4.6901974167       -0.0131178686        2.2519557961
 C         -5.1837794934       -0.7788853462        1.2058702536
 C         -4.3084761462       -1.4832581833        0.3968948604
 H         -4.6526629555       -2.0991798512       -0.4179918840
 H         -6.2443491778       -0.8254566312        1.0184924935
 H         -5.3693686220        0.5413479286        2.8801000114
 H         -2.9320570156        0.6333010501        3.3098382720
 H         -1.3835656659       -0.6322659581        1.8753272498
 H         -2.6389599665       -1.7857302549       -2.5212446618
 H         -3.1223554965        0.3331419165       -3.5231560485
 H         -2.8083584953        2.7772809750       -3.4339073122
 H         -1.3373659131        3.7893654474       -1.7497046103
 H         -0.4757039555        2.5360145155        1.1385679016
 C          0.6542396408        3.8547527774       -0.1119090636
 C         -0.1096120436        5.0809430477        0.2863426612
 C          1.1518072301        4.7168428189        1.0081267557
 H          2.0351735608        5.3157118900        0.8452594527
 H          1.0736322280        4.3192258476        2.0099123337
 H         -0.0908418684        5.9362071729       -0.3723019107
 H         -1.0451820071        4.9424418375        0.8069898753
 H          1.2089590522        3.8739445246       -1.0427189370
