  62
        -98.94067725
 C         -1.6563534910       -0.9462721830       -0.9630723029
 C         -1.6602389672        0.2620755168       -0.2215855060
 C         -2.9701637865        0.9217597556       -0.0843057313
 C         -4.0566604396        0.3706253749       -0.6527011411
 C         -5.4527148585        0.9104424838       -0.5434768591
 C         -6.1903174180        0.2995393490        0.6562250271
 C         -5.3917856203        0.3424991215        1.9592649027
 H         -6.0225458530       -0.0867955793        2.7408674741
 H         -4.5162569120       -0.3039006392        1.8628200096
 C         -4.9393503242        1.7474487103        2.3811415361
 H         -5.5309403723        2.4993518696        1.8575130381
 H         -5.1318001053        1.8702212701        3.4491187438
 C         -3.4516342767        2.0286848213        2.1611033201
 H         -2.8573122292        1.2253365913        2.6039924010
 H         -3.2000403468        2.9519831976        2.6896539889
 C         -3.0137798634        2.2021581228        0.7013024336
 H         -3.6546734910        2.9363003525        0.2090540118
 H         -1.9891618900        2.5846743630        0.7056872667
 H         -7.1348515698        0.8305795258        0.7880408372
 H         -6.4170798172       -0.7446537355        0.4281938265
 H         -5.4122704453        1.9934592788       -0.4456083994
 H         -5.9924180407        0.6569782632       -1.4575699397
 O         -4.0131523472       -0.7889793918       -1.3579652119
 C         -2.8250089550       -1.4848061667       -1.5078548931
 O         -2.9380840043       -2.5572853487       -2.1353068248
 H          2.0698463480       -0.7582774330       -0.4152245807
 C          1.5836308178       -1.3027227292        0.3757197385
 C          0.3412122766       -1.8759433809        0.1628738405
 C         -0.2683777373       -2.5621785166        1.2100934386
 C          0.3522329552       -2.6672976744        2.4395845501
 C          1.5924497659       -2.0909041810        2.6504298450
 C          2.2064506542       -1.3992790260        1.6126003407
 N          3.4340336144       -0.7665862866        1.8159931419
 S          4.4317096282       -0.2469982656        0.5977937511
 O          4.5916593366       -1.2513060066       -0.4293948343
 O          5.6480422221        0.1437154658        1.2798778981
 C          3.6559642855        1.2029847845       -0.0878075064
 C          3.9698689825        1.5466567138       -1.3881314951
 C          3.4114273792        2.6903409554       -1.9353995304
 C          2.5499929995        3.4667049143       -1.1759915846
 C          2.2465512439        3.1086679635        0.1278327866
 C          2.8059403286        1.9691709781        0.6828246208
 H          2.5726044543        1.6641188407        1.6889587618
 H          1.5691452835        3.7078015203        0.7144896836
 H          2.1098945045        4.3532426672       -1.6049540898
 H          3.6448987508        2.9691126709       -2.9507771304
 H          4.6333162835        0.9062385160       -1.9480157959
 H          3.8862348921       -0.9018099908        2.7054567798
 H          2.0765738975       -2.1655280116        3.6121029336
 H         -0.1325331174       -3.2014107489        3.2431767540
 H         -1.2422361594       -3.0048514544        1.0471483228
 C         -0.3888653044       -1.7633470298       -1.1518530746
 H         -0.7387381571       -2.7715578589       -1.4299870108
 C          0.4999659309       -1.2852552364       -2.2899402130
 C         -0.0948176226       -0.6767274180       -3.5238458968
 C          0.7182013793        0.1660662941       -2.5899394001
 H          1.7040233154        0.4764692582       -2.9046262666
 H          0.2143331505        0.8892598564       -1.9690985746
 H          0.3272282653       -0.9420090576       -4.4814729934
 H         -1.1658906782       -0.5359113290       -3.5426936098
 H          1.3510318757       -1.9441210699       -2.4394922125
 O         -0.6401964094        0.7757166382        0.3023373092
