  62
        -98.93740411
 C          2.2048817305        0.8410739502       -0.1240935806
 C          2.8856859005        0.1040487103        0.8718126895
 C          3.6657834804       -1.0564969798        0.4107792596
 C          3.6698411104       -1.3690506600       -0.8966971404
 C          4.3527722603       -2.5253687401       -1.5837713702
 C          5.7839395203       -2.8668470201       -1.1472848202
 C          6.6357917804       -1.6641964501       -0.7158970104
 H          6.1344167504       -0.7335856001       -0.9870842205
 H          7.5854995804       -1.6912180902       -1.2532508604
 C          6.9450724604       -1.6587149499        0.7830942196
 H          7.8202244704       -1.0286648799        0.9591659095
 H          7.2062652104       -2.6736158898        1.0908355398
 C          5.8246706204       -1.1369135097        1.6818360996
 H          5.7085039805       -0.0588054297        1.5412088394
 H          6.1257046804       -1.2930305396        2.7206280396
 C          4.4472347704       -1.7849888697        1.4663339197
 H          3.8764844404       -1.6767953196        2.3930115997
 H          4.5410628004       -2.8443478497        1.2397688698
 H          6.2600954103       -3.3654025402       -1.9932425301
 H          5.7545190203       -3.5905997600       -0.3339356601
 H          4.3459846203       -2.2667087103       -2.6452995602
 H          3.7218230803       -3.4111640001       -1.4651352301
 O          2.9754971404       -0.6454494101       -1.8198720104
 C          2.2304487504        0.4689475300       -1.4674241806
 O          1.6531220404        1.0226343899       -2.4208025906
 O          2.8308331305        0.3914703704        2.0990360894
 C          1.3846424205        2.0509467402        0.2846276692
 C         -0.0706093295        1.8200941502       -0.0427095307
 C         -0.8570676895        2.7287017302       -0.7372978508
 C         -2.1864255195        2.4452328402       -1.0012609708
 C         -2.7598898195        1.2612728203       -0.5770817906
 C         -1.9873813595        0.3524078103        0.1350151395
 C         -0.6573341695        0.6395903503        0.3984034394
 H         -0.0552105695       -0.0697177196        0.9539176395
 N         -2.5585003296       -0.8571352396        0.5680243797
 S         -4.0132743996       -0.7971313794        1.4054916097
 O         -4.1654717795        0.4537635107        2.1115917095
 O         -4.0340645996       -1.9980533293        2.2119241499
 C         -5.2465039296       -0.9347290196        0.1290234497
 C         -6.2070573696        0.0473848904       -0.0129999104
 C         -7.1588882896       -0.0863064297       -1.0120084003
 C         -7.1341212996       -1.1941624398       -1.8452242102
 C         -6.1645414097       -2.1733587598       -1.6871121101
 C         -5.2105434396       -2.0459025197       -0.6903247201
 H         -4.4431270797       -2.7851669297       -0.5314740900
 H         -6.1483762697       -3.0335869999       -2.3368379900
 H         -7.8750072896       -1.2957226099       -2.6224370002
 H         -7.9138750496        0.6732420603       -1.1363885604
 H         -6.1847660795        0.8929960805        0.6558996195
 H         -1.9053159996       -1.4683101396        1.0363230398
 H         -3.7923584595        1.0355101003       -0.7874184406
 H         -2.7836476595        3.1569172101       -1.5505068809
 H         -0.4288907295        3.6564605701       -1.0788543110
 H          1.4783525105        2.1102411004        1.3796886392
 C          1.9565170805        3.3147256701       -0.3211516810
 C          1.7647973506        4.6324894002        0.3663264589
 C          3.1142430906        3.9813720802        0.3573772089
 H          3.8927935406        4.4117080101       -0.2544698911
 H          3.4753667506        3.5372858203        1.2737892090
 H          1.6188354106        5.5142287002       -0.2390138413
 H          1.2104117806        4.6363896404        1.2927104289
 H          1.9565259005        3.2945846800       -1.4050044310
