  62
        -98.93902220
 C          2.0796964369        0.7994052139        0.5066420539
 C          1.9295422774        0.0835661966       -0.7033477665
 C          1.9156000881       -1.3855202977       -0.5976435593
 C          2.0252711167       -1.9544699596        0.6149874796
 C          2.0571527351       -3.4220671314        0.9446626662
 C          3.5018928768       -3.9496804236        0.9800047364
 C          4.0460348076       -4.4307034323       -0.3643854652
 H          5.1044527926       -4.6603352257       -0.2225682735
 H          3.5425621251       -5.3584892541       -0.6434106729
 C          3.9093751231       -3.4333575673       -1.5172020379
 H          4.6303488685       -3.7108132214       -2.2884392903
 H          4.1736634044       -2.4328889122       -1.1701056555
 C          2.5029810358       -3.4124804140       -2.1348206725
 H          1.9356647519       -4.2669836914       -1.7670362901
 H          2.5800976011       -3.5342005190       -3.2173094624
 C          1.7093107725       -2.1219025232       -1.8927343110
 H          1.9576301416       -1.3900897094       -2.6684683757
 H          0.6367006757       -2.3238132559       -1.9928682499
 H          4.1385460811       -3.1524979716        1.3719791003
 H          3.5515790759       -4.7834191314        1.6832307347
 H          1.6234166260       -3.5208531047        1.9423000400
 H          1.4462426032       -3.9841308236        0.2444322798
 O          2.1820992315       -1.2257351362        1.7569155184
 C          2.1871363765        0.1559495978        1.7368755050
 O          2.2992188001        0.6905399218        2.8608350322
 H         -0.3752561231        1.2049375974        0.9290897093
 C         -0.4482239974        2.0184709483        0.2207181904
 C          0.6912581347        2.7350477399       -0.1224504750
 C          0.5664836981        3.7887742676       -1.0183246467
 C         -0.6633209625        4.0849171113       -1.5811878329
 C         -1.7834890305        3.3338017656       -1.2776829321
 C         -1.6723238579        2.2904873069       -0.3647048867
 N         -2.7906493444        1.5139122203       -0.0106348471
 S         -2.5472476419       -0.1216794475        0.3370095852
 O         -2.1127992910       -0.2465056317        1.7072750666
 O         -1.7066746425       -0.7381892469       -0.6639964960
 C         -4.2226092778       -0.7167036789        0.1886008057
 C         -4.6219792833       -1.3417971685       -0.9773972854
 C         -5.9364033136       -1.7665031284       -1.0942917557
 C         -6.8249416678       -1.5564740235       -0.0505644470
 C         -6.4092765756       -0.9282397054        1.1142440141
 C         -5.0962386219       -0.5027876392        1.2381673806
 H         -4.7237833714       -0.0187886450        2.1259338616
 H         -7.1019766069       -0.7688476159        1.9247072720
 H         -7.8472521817       -1.8868652081       -0.1444737515
 H         -6.2609790071       -2.2581452391       -1.9971393881
 H         -3.8932714435       -1.4883040221       -1.7586545721
 H         -3.5680112817        1.6400723779       -0.6451655169
 H         -2.7346708357        3.5485558685       -1.7404593729
 H         -0.7455778917        4.9010423494       -2.2829351438
 H          1.4345376573        4.3678765671       -1.2879796872
 C          2.0036280112        2.3154276167        0.4971750864
 H          2.0047384839        2.6280969061        1.5523831330
 C          3.2136468692        2.9103061816       -0.1926635497
 C          3.7386146980        4.2514497535        0.2212934013
 C          4.5012055997        3.0089555522        0.5669987899
 H          5.4243671695        2.8053310568        0.0456694464
 H          4.4950788602        2.6702458073        1.5931236789
 H          3.2233824345        4.7656828750        1.0184733409
 H          4.1436582057        4.9032009386       -0.5380418592
 H          3.2683565268        2.6356843065       -1.2398112515
 O          1.8169867078        0.6458205796       -1.8252431202
