  62
        -98.93879948
 C          1.8648904361        0.6823113777        0.2833404787
 C          2.2051476558       -0.5960335167       -0.2309248403
 C          3.5863906649       -0.7708201704       -0.6963046571
 C          4.4337074918        0.2720545807       -0.6346779429
 C          5.8820803389        0.2264607237       -1.0253052542
 C          6.7698061678       -0.1352164027        0.1736606303
 C          6.2885505217       -1.3605684100        0.9507039054
 H          7.0067037029       -1.5388912989        1.7540640848
 H          5.3303377022       -1.1297404484        1.4217986692
 C          6.1423246114       -2.6322441768        0.1033479560
 H          6.7019137797       -2.5240580298       -0.8264487072
 H          6.5813515386       -3.4694453855        0.6501255191
 C          4.6970198116       -3.0180535674       -0.2172288132
 H          4.1097356634       -3.0360005316        0.7042424634
 H          4.6987143700       -4.0327559618       -0.6240767975
 C          3.9754447628       -2.1205527155       -1.2305593559
 H          4.5857052464       -2.0170173695       -2.1301402002
 H          3.0387707437       -2.6144008111       -1.5047954784
 H          7.7853055412       -0.3069799006       -0.1879428090
 H          6.7920417185        0.7167059562        0.8572501304
 H          6.0147035086       -0.5028261168       -1.8221377410
 H          6.1699889975        1.2120584140       -1.3950397356
 O          4.0700476258        1.4881785764       -0.1593769443
 C          2.7844367752        1.7320326289        0.3159710325
 O          2.6193682311        2.8971214435        0.7184339063
 H         -2.0171714854       -0.0511212656        0.1914486949
 C         -1.7380693508        0.7825837383       -0.4336578295
 C         -0.4843582820        1.3579609567       -0.2884275707
 C         -0.1294446387        2.4098833589       -1.1261023155
 C         -1.0178562232        2.8737845527       -2.0793827379
 C         -2.2802904034        2.3193856223       -2.1974832277
 C         -2.6453655507        1.2686960991       -1.3644083322
 N         -3.9149070335        0.6827898419       -1.4515114743
 S         -4.7101919238        0.2177683297       -0.0513190641
 O         -6.1123047400        0.2345058062       -0.4079141328
 O         -4.3255414403        1.0402454022        1.0707993953
 C         -4.1987424336       -1.4672308785        0.2041161758
 C         -3.6224508416       -1.8386999434        1.4023666540
 C         -3.2403050264       -3.1589071884        1.5812935341
 C         -3.4424537600       -4.0793600813        0.5647635040
 C         -4.0268963396       -3.6910874368       -0.6314768149
 C         -4.4102422480       -2.3728723866       -0.8165869129
 H         -4.8705876306       -2.0333686250       -1.7294024767
 H         -4.1817465340       -4.4109191374       -1.4190225555
 H         -3.1415705226       -5.1053637121        0.7066546805
 H         -2.7839335348       -3.4619777672        2.5100572658
 H         -3.4788746604       -1.0907764007        2.1669089486
 H         -4.5396412064        1.1147686476       -2.1164627060
 H         -2.9779373606        2.6962667140       -2.9299385608
 H         -0.7299028470        3.6886111253       -2.7267086985
 H          0.8423099669        2.8670635338       -1.0155576987
 C          0.4422869796        0.8465438944        0.7845876769
 H          0.1144587931       -0.1763048459        1.0316707388
 C          0.3406576793        1.6686045886        2.0623530266
 C         -0.1712577198        3.0734177167        2.1048598930
 C         -0.9961091272        1.9624220093        2.6782544379
 H         -1.0921865136        1.8942011938        3.7517491110
 H         -1.8859790718        1.6695751716        2.1389919378
 H          0.3176276355        3.7651068297        2.7737404378
 H         -0.4959774045        3.5246984759        1.1805820135
 H          1.1478315013        1.4366927629        2.7508315007
 O          1.3858002691       -1.5522451544       -0.2885863472
