  62
        -98.94874859
 C         -1.8684148400       -1.1073297593       -0.2573836995
 C         -0.8956978202       -1.7023222189       -1.0937613002
 C          0.0021745700       -2.6646177791       -0.4489651510
 C         -0.1253481995       -2.9155453798        0.8667800290
 C          0.7030953109       -3.8853197801        1.6653828782
 C          2.0446803310       -3.3095535903        2.1384184480
 C          3.1086391306       -3.1690815597        1.0492055676
 H          4.0609132008       -2.9945509599        1.5540578973
 H          3.1959384405       -4.1082073795        0.5013990171
 C          2.8551564402       -2.0148057193        0.0696031583
 H          2.1440301303       -1.3124718295        0.5127829889
 H          3.7853178301       -1.4644341292       -0.0878593918
 C          2.3510702797       -2.4412955286       -1.3091163417
 H          3.1321903695       -3.0046040284       -1.8247068723
 H          2.1466194594       -1.5372697984       -1.8890021912
 C          1.0759279797       -3.2928879087       -1.2858091917
 H          0.6960570894       -3.3659476282       -2.3080420816
 H          1.3004216099       -4.2957537389       -0.9228403622
 H          1.8629571612       -2.3321179705        2.5933454385
 H          2.4309169514       -3.9744396406        2.9149404375
 H          0.1109416612       -4.1478941706        2.5447620983
 H          0.8780948607       -4.7893570598        1.0807221377
 O         -1.0692139692       -2.3170799102        1.6400569596
 C         -1.9359356994       -1.3742687600        1.1100247204
 O         -2.7196852891       -0.8720037004        1.9397199009
 O         -0.7853058507       -1.4411929583       -2.3230630901
 C         -2.7975882702       -0.0598938791       -0.8433359087
 C         -2.5318069300        1.2679919806       -0.1774887181
 C         -3.5305249299        2.1388511004        0.2359494027
 C         -3.2018441097        3.3234211601        0.8736750431
 C         -1.8830206196        3.6572390400        1.1180504528
 C         -0.8741700497        2.7991585503        0.6912013120
 C         -1.2059302600        1.6305746506        0.0277462915
 H         -0.4238018400        0.9561300808       -0.2887445191
 N          0.4756925403        3.1204669702        0.8965149216
 S          1.6598128605        1.9660349002        1.1421383106
 O          1.1127858307        0.7014077599        1.5761522302
 O          2.6033177008        2.5874975598        2.0490653405
 C          2.4596475399        1.7772021610       -0.4414746298
 C          1.8158694294        2.0931797015       -1.6202397194
 C          2.4843844190        1.9002759121       -2.8202343997
 C          3.7773205890        1.4021553921       -2.8241278105
 C          4.4163795294        1.1021861916       -1.6310424008
 C          3.7531858999        1.2910713210       -0.4295710405
 H          4.2131832703        1.0799378906        0.5225227292
 H          5.4250833595        0.7214299116       -1.6333006714
 H          4.2898528786        1.2504374926       -3.7608612607
 H          1.9879195886        2.1383590825       -3.7473222194
 H          0.8113145294        2.4825846514       -1.5995708488
 H          0.6406311405        3.9383053900        1.4635956219
 H         -1.6308643695        4.5693534998        1.6371713331
 H         -3.9863839396        3.9893027399        1.1998657837
 H         -4.5652097199        1.8851113804        0.0737568429
 H         -2.5131667306        0.0217480915       -1.9035606187
 C         -4.2422138602       -0.5035768992       -0.7588681083
 C         -5.2344479406       -0.0471151587       -1.7855518577
 C         -4.7625317105       -1.4690702687       -1.7799947086
 H         -5.4452764904       -2.2409599289       -1.4581749287
 H         -4.0791036508       -1.7863359483       -2.5540472990
 H         -6.2465599505        0.1561835111       -1.4696751773
 H         -4.8779667409        0.6004844717       -2.5721509876
 H         -4.5790791298       -0.6268653997        0.2643345717
