  62
        -98.94121306
 C         -1.6883690631        0.2247998523       -0.2254904360
 C         -2.8280194641        0.9896342379        0.1245667358
 C         -3.9652742301        0.2310311126        0.6649543551
 C         -3.8684264165       -1.0977184161        0.8449277972
 C         -4.9308019690       -1.9973397986        1.4156959815
 C         -5.9756672865       -2.4593551567        0.3906860388
 C         -6.9676557660       -1.3850971399       -0.0570107575
 H         -7.7680058703       -1.8936911170       -0.5982815302
 H         -7.4151527767       -0.9169168414        0.8202917699
 C         -6.3645506342       -0.3063493590       -0.9675147851
 H         -5.4148140929       -0.6616533407       -1.3738575347
 H         -7.0300644506       -0.1322015910       -1.8160835831
 C         -6.1365559368        1.0430628344       -0.2863713482
 H         -7.0971168861        1.4727233417        0.0067351296
 H         -5.6727397210        1.7180847314       -1.0101162669
 C         -5.2317674679        0.9806332393        0.9510125163
 H         -4.9584350561        2.0017567501        1.2277932984
 H         -5.7649709627        0.5235078243        1.7842285411
 H         -5.4553143947       -2.8609295330       -0.4818444543
 H         -6.5395947872       -3.2765212105        0.8464405366
 H         -4.4153853757       -2.8788378551        1.8028978945
 H         -5.4302400440       -1.4949273055        2.2446104772
 O         -2.7422339141       -1.7927920644        0.5347508890
 C         -1.6453678521       -1.1589623082       -0.0215937216
 O         -0.6984533739       -1.9253972363       -0.2899897395
 H          2.0912188044        0.0894555504       -0.2396015042
 C          1.7641247677        0.9177255053        0.3704060467
 C          0.4775351731        1.4137912796        0.2201358616
 C          0.0648416026        2.4667657783        1.0295423708
 C          0.9284940192        3.0073255796        1.9640830158
 C          2.2202366830        2.5277246236        2.0932375987
 C          2.6419927778        1.4759081501        1.2888626297
 N          3.9399885334        0.9601526439        1.4020646010
 S          4.7657809370        0.4377418038        0.0445072134
 O          6.1611647251        0.5111951045        0.4221081563
 O          4.3858359265        1.1846701304       -1.1313803842
 C          4.3069756462       -1.2727449869       -0.1272129017
 C          3.8571506667       -1.7427932784       -1.3445043005
 C          3.5278317659       -3.0832951127       -1.4662732049
 C          3.6550483097       -3.9260049134       -0.3733975963
 C          4.1119057175       -3.4392158450        0.8420103281
 C          4.4432797661       -2.1002888407        0.9694991417
 H          4.8042525311       -1.6865710354        1.8963611012
 H          4.2079506344       -4.0990802353        1.6892561127
 H          3.3945085761       -4.9681198619       -0.4705137722
 H          3.1689423936       -3.4629110548       -2.4095660872
 H          3.7671867149       -1.0518497924       -2.1683880790
 H          4.5406412062        1.4501692484        2.0485718645
 H          2.8983083429        2.9622442855        2.8122762899
 H          0.5971542202        3.8217580562        2.5906834932
 H         -0.9372208654        2.8518012763        0.9204385886
 C         -0.4289175547        0.8212413866       -0.8323610406
 H          0.1076169074       -0.0225099363       -1.2875840083
 C         -0.7032616237        1.8491828081       -1.9146822641
 C          0.4159200356        2.2400351212       -2.8309190712
 C         -0.7267143930        1.4197181167       -3.3489081724
 H         -1.4361309159        1.8870762951       -4.0154513718
 H         -0.5494927251        0.3754445532       -3.5623900397
 H          0.4896320249        3.2713254227       -3.1409268651
 H          1.3736000669        1.7603368230       -2.6877956554
 H         -1.3981001208        2.6203885193       -1.6102532904
 O         -2.9193812783        2.2405581049        0.0077458734
