  62
        -98.94191668
 C         -1.2940880912       -1.3768739058        0.7288341921
 C         -1.8644331896       -1.1110659546       -0.5407410808
 C         -2.8032200301        0.0210717955       -0.5965301651
 C         -3.0171185874        0.7612264047        0.5054137667
 C         -3.9332287029        1.9478052368        0.5780038012
 C         -3.1932528760        3.2557546555        0.2685741504
 C         -2.3397365402        3.2002301393       -0.9980560693
 H         -1.5188920854        2.4955908248       -0.8453211869
 H         -1.8946156960        4.1875398877       -1.1332130923
 C         -3.1096941569        2.8147757627       -2.2686057863
 H         -2.8047488898        3.4812234030       -3.0779643223
 H         -4.1794810780        2.9612066044       -2.1146309043
 C         -2.8595427321        1.3855837151       -2.7528018683
 H         -1.7840192382        1.1994912186       -2.8114724882
 H         -3.2630097495        1.2935944017       -3.7648055900
 C         -3.4942432071        0.2749246441       -1.9067839595
 H         -3.4156846353       -0.6581081104       -2.4726270545
 H         -4.5529077962        0.4918708461       -1.7485302686
 H         -2.5402659449        3.4868768801        1.1121661044
 H         -3.9316123946        4.0545371036        0.1783490305
 H         -4.7517466753        1.8058830414       -0.1253546873
 H         -4.3422785350        2.0023189098        1.5884731256
 O         -2.3857806986        0.5270745763        1.6848755489
 C         -1.5113116534       -0.5381107484        1.8244619391
 O         -0.9927256539       -0.6271891447        2.9558950511
 H          1.3169878148       -0.5382610956        0.4372982935
 C          1.5045887642       -1.3577011592       -0.2408700013
 C          0.7269185385       -2.5049521591       -0.1429769407
 C          0.9643559976       -3.5475189187       -1.0275427694
 C          1.9582058885       -3.4342131404       -1.9844475365
 C          2.7459598683       -2.3005397190       -2.0619963038
 C          2.5162258461       -1.2507539233       -1.1790408919
 N          3.2861464898       -0.0789162239       -1.2274495458
 S          3.7167884206        0.7047240213        0.1878235709
 O          4.9238619771        1.4262701046       -0.1566110352
 O          3.8208605393       -0.2159019335        1.2950861232
 C          2.4186425418        1.8902207147        0.4697243264
 C          2.2688246297        2.9119024178       -0.4480054268
 C          1.2983588361        3.8746255171       -0.2271640818
 C          0.4948136823        3.7994744371        0.9009351587
 C          0.6492770250        2.7627415186        1.8074517099
 C          1.6240385510        1.8002963863        1.5947350313
 H          1.7709414123        0.9849206807        2.2871943061
 H          0.0167326409        2.6874635422        2.6783915911
 H         -0.2545396327        4.5550722450        1.0766325655
 H          1.1704322337        4.6803870144       -0.9317392977
 H          2.9210783796        2.9408343936       -1.3048699592
 H          4.0433261686       -0.0934537409       -1.8949304959
 H          3.5275791591       -2.2211030357       -2.8024125521
 H          2.1274425980       -4.2457534853       -2.6760614083
 H          0.3575725696       -4.4369669076       -0.9843503641
 C         -0.3254846891       -2.5281199951        0.9380753593
 H          0.1835594876       -2.3001846149        1.8902328002
 C         -0.9834564148       -3.8870636235        1.1213597562
 C         -2.3561504885       -4.0032031234        1.7128643324
 C         -2.1265647325       -4.3591270827        0.2762645478
 H         -2.1573202992       -5.4028307318       -0.0012124230
 H         -2.4936443550       -3.6931120779       -0.4874677950
 H         -2.8820038797       -3.0858317110        1.9357071955
 H         -2.5453285123       -4.7974780961        2.4193883786
 H         -0.2645595071       -4.6402559806        1.4305401136
 O         -1.6236469965       -1.7815666443       -1.5768427256
