  62
        -98.93690962
 C         -2.4630082349       -0.8770783568        0.4540158311
 C         -2.5291839036        0.2851529595       -0.3480283960
 C         -3.6785194126        1.1771387732       -0.1073320791
 C         -4.5682808788        0.8558643406        0.8477593287
 C         -5.8277139752        1.5935018447        1.2091347473
 C         -7.0327924751        1.0114349184        0.4509251895
 C         -7.2731519522        1.6113651838       -0.9339453969
 H         -7.6462762316        2.6316732691       -0.8228132930
 H         -8.0623020699        1.0243174999       -1.4094700207
 C         -6.0533395557        1.6352049796       -1.8589353206
 H         -6.4144270339        1.7207715630       -2.8857547386
 H         -5.5156317370        0.6882381115       -1.7839393943
 C         -5.0986359104        2.8032947552       -1.5698717069
 H         -5.5974846831        3.5154037444       -0.9126810320
 H         -4.8879847091        3.3356433842       -2.4997145138
 C         -3.7409719838        2.4094568938       -0.9678465578
 H         -3.3451843335        3.2549191812       -0.3955029734
 H         -3.0262258045        2.2181902061       -1.7744439083
 H         -7.9328197708        1.1696300643        1.0485264666
 H         -6.8840575460       -0.0680339284        0.3643558738
 H         -5.9830896013        1.4398821704        2.2790093151
 H         -5.7195381945        2.6572105242        1.0194429662
 O         -4.4559135468       -0.2677137549        1.6093635775
 C         -3.4133345572       -1.1575721311        1.4351376463
 O         -3.4379875353       -2.1415491083        2.2022050364
 H          0.9008500456       -1.6141023484       -1.3562532264
 C          1.0225815654       -1.1364350486       -0.3966598686
 C         -0.0068341693       -1.1696411880        0.5291779721
 C          0.1866129069       -0.5471786281        1.7601160298
 C          1.3723033731        0.1002076452        2.0468616696
 C          2.3924979430        0.1451815539        1.1119600239
 C          2.2140728112       -0.4781423282       -0.1143153927
 N          3.2401812485       -0.4275703494       -1.0711848236
 S          4.8060406932       -0.8037555225       -0.6052217791
 O          5.4674672064       -1.2306481888       -1.8189835638
 O          4.8196351154       -1.7388776707        0.4957566553
 C          5.4938679462        0.7559140976       -0.0905916108
 C          5.4481408500        1.8141964163       -0.9768248148
 C          5.9927905187        3.0299439720       -0.5955619653
 C          6.5738751131        3.1654626534        0.6565932821
 C          6.6148239978        2.0925120413        1.5336357884
 C          6.0704845230        0.8739444056        1.1587903291
 H          6.0751934138        0.0140422421        1.8096767917
 H          7.0672552612        2.1996359929        2.5064528450
 H          6.9973275013        4.1129758496        0.9503899109
 H          5.9621900301        3.8669018840       -1.2745439599
 H          4.9908356841        1.6682265236       -1.9412245995
 H          3.0046403091       -0.8633270968       -1.9507965673
 H          3.3182485230        0.6535480338        1.3265451477
 H          1.5045452425        0.5786115961        3.0055492240
 H         -0.6121818191       -0.5793549051        2.4891874262
 C         -1.3226926289       -1.8633628235        0.2727223891
 H         -1.4572532234       -2.6278358630        1.0517263962
 C         -1.4159052562       -2.5308416006       -1.0831548002
 C         -0.7954031204       -3.8773283751       -1.3012319837
 C         -2.2864094797       -3.7401037233       -1.2366207821
 H         -2.8552070939       -3.8543488755       -2.1472297593
 H         -2.7974742511       -4.0990822741       -0.3550263943
 H         -0.2906265452       -4.3363131467       -0.4643410902
 H         -0.3424551499       -4.0903470740       -2.2580838038
 H         -1.4014453864       -1.8203701428       -1.9017409027
 O         -1.6773585101        0.5652663220       -1.2318166977
