  62
        -98.93609605
 C         -1.2244182696       -1.6962010697        0.1497424092
 C         -2.2980806597       -1.2958924505        0.9830799694
 C         -3.1623835802       -0.2226427207        0.4686687698
 C         -2.8659682206        0.3424029498       -0.7157084701
 C         -3.6084745111        1.4870906396       -1.3450046897
 C         -3.2208315317        2.8130830596       -0.6612235393
 C         -4.3617458820        3.4899060588        0.0987802209
 H         -3.9245696923        4.2862981489        0.7049151111
 H         -5.0399706322        3.9570283287       -0.6183508189
 C         -5.1944779015        2.5767582482        1.0033678807
 H         -5.9174039613        2.0233614480        0.4020546706
 H         -5.7729461618        3.2250783777        1.6650381509
 C         -4.4030638210        1.5797239883        1.8597228304
 H         -3.3851513211        1.9346745487        2.0228056304
 H         -4.8794097409        1.5220324078        2.8407068804
 C         -4.3608007504        0.1458338485        1.2992266300
 H         -4.3448007800       -0.5552884118        2.1392154197
 H         -5.2733771203       -0.0489502518        0.7284150099
 H         -2.3938687916        2.6136017298        0.0229439706
 H         -2.8519801021        3.5140174500       -1.4110137191
 H         -4.6798496310        1.3148840791       -1.2661355897
 H         -3.3369226612        1.5085232400       -2.4003395297
 O         -1.7918142604       -0.0255618095       -1.4579972302
 C         -0.9459538999       -1.0527630593       -1.0576484406
 O         -0.0152551799       -1.2756585886       -1.8499218107
 O         -2.5239870194       -1.8146500209        2.1101512093
 C         -0.3211772490       -2.8111109295        0.6474106389
 C          1.1221522608       -2.4073654188        0.4844974789
 C          2.0358159810       -3.0984905081       -0.2987850013
 C          3.3370646208       -2.6425401775       -0.4253765713
 C          3.7564383803       -1.4973860775        0.2256985990
 C          2.8490596701       -0.7975349081        1.0113880493
 C          1.5484154203       -1.2574426988        1.1393759592
 H          0.8409108201       -0.7069836893        1.7483663594
 N          3.2642953696        0.3757283719        1.6780840796
 S          3.7761779789        1.6594484724        0.7316287300
 O          4.9633215391        1.2689172131        0.0158545098
 O          3.9165720784        2.7709069522        1.6454758203
 C          2.4419707987        1.9756404121       -0.4071974599
 C          1.5153542783        2.9477586316       -0.0860308195
 C          0.4528747181        3.1696721214       -0.9461707794
 C          0.3288316484        2.4096678616       -2.0992290296
 C          1.2658602488        1.4359215022       -2.4063644200
 C          2.3348607290        1.2139149824       -1.5531961801
 H          3.0790519093        0.4631092428       -1.7624916404
 H          1.1585269091        0.8335310424       -3.2931797301
 H         -0.5055252117        2.5722398514       -2.7630093895
 H         -0.2740809722        3.9319105009       -0.7146688692
 H          1.6521036381        3.5176580214        0.8193701906
 H          2.5829706894        0.7129510814        2.3439578797
 H          4.7612193502       -1.1209519170        0.1220015291
 H          4.0347573810       -3.1859373670       -1.0445760315
 H          1.7237539514       -3.9803720881       -0.8332380216
 H         -0.5350768589       -2.8745673299        1.7277398089
 C         -0.6359711684       -4.1815019794        0.0672099285
 C         -2.0277280883       -4.5345368500       -0.3624409415
 C         -0.9420924084       -4.3912989092       -1.3843436116
 H         -0.5688703480       -5.2857995589       -1.8614479218
 H         -0.9466002389       -3.5241767490       -2.0253971913
 H         -2.3988768378       -5.5231551802       -0.1373419518
 H         -2.7809132886       -3.7622388803       -0.3036032213
 H         -0.0755636080       -4.9674429293        0.5645305382
