  62
        -98.93983978
 C         -2.1163481300       -0.3922674897        0.3595494305
 C         -3.1580068498       -0.6258684799       -0.5719308396
 C         -4.0733805998        0.5005274901       -0.8024706600
 C         -3.8672563298        1.6763157003       -0.1843047403
 C         -4.6987162098        2.9205129402       -0.3415941207
 C         -5.9482708399        2.9520648805        0.5495249491
 C         -7.0740440799        2.0074995304        0.1262511591
 H         -7.9593008099        2.2881395906        0.7003645089
 H         -7.3044526897        2.1684965502       -0.9272675909
 C         -6.7790301299        0.5208424905        0.3696972195
 H         -5.9479934201        0.4247554806        1.0723404997
 H         -7.6471726300        0.0487095606        0.8351134195
 C         -6.4527020898       -0.2755289498       -0.8936583602
 H         -7.3264014697       -0.2976782900       -1.5486401204
 H         -6.2240767598       -1.3032515598       -0.6008600100
 C         -5.2586963196        0.2663373199       -1.6903350802
 H         -4.9738799995       -0.4817301902       -2.4338667100
 H         -5.5354810395        1.1854812598       -2.2057946204
 H         -5.6496896001        2.7270394007        1.5760871592
 H         -6.3341592299        3.9739768505        0.5323901288
 H         -4.0564676298        3.7594045103       -0.0647307008
 H         -4.9912384396        3.0365748600       -1.3855399608
 O         -2.8304693399        1.8758718904        0.6738708998
 C         -1.9565355800        0.8485121105        0.9845837702
 O         -1.0894296801        1.1589459806        1.8281888003
 O         -3.3400236698       -1.7074312700       -1.1893795194
 C         -1.0979573101       -1.4533765296        0.7482461409
 C         -0.0195561199       -1.5706394899       -0.3029408789
 C         -0.2737674197       -2.1230981302       -1.5540958389
 C          0.7344284004       -2.2086912004       -2.4963136787
 C          2.0080830804       -1.7491621004       -2.2127135186
 C          2.2741253702       -1.1997095401       -0.9635775687
 C          1.2604024201       -1.1143323899       -0.0196316289
 H          1.4712536099       -0.6660758796        0.9401836011
 N          3.5743564202       -0.7724885501       -0.6401333086
 S          3.7852556301        0.5672800301        0.3645662411
 O          3.5428459798        0.1699517105        1.7282705912
 O          3.0212345902        1.6896808401       -0.1341743492
 C          5.5308730001        0.8486435200        0.1296720413
 C          6.4232709000        0.0376174202        0.8054463717
 C          7.7817691900        0.2242864001        0.6065500918
 C          8.2235100502        1.2133457899       -0.2599198083
 C          7.3165372303        2.0212984997       -0.9288542387
 C          5.9559290403        1.8385578398       -0.7357029588
 H          5.2142397904        2.4471120897       -1.2278992991
 H          7.6629729304        2.7915967696       -1.5988540388
 H          9.2814217902        1.3572102098       -0.4126490282
 H          8.4897245799       -0.4001360698        1.1271559121
 H          6.0327488499       -0.7106455197        1.4750857718
 H          4.1713750103       -0.7073362603       -1.4541211985
 H          2.7928272205       -1.8165137006       -2.9509992585
 H          0.5246320105       -2.6338947207       -3.4662374686
 H         -1.2717329397       -2.4594333602       -1.7871900789
 H         -0.6213794402       -1.0806908994        1.6658040009
 C         -1.7270949801       -2.7999005195        1.0498327011
 C         -0.9552529503       -3.7884958094        1.8685144714
 C         -2.1571982904       -3.1081852392        2.4506706511
 H         -3.0579369304       -3.6849541191        2.5979060011
 H         -1.9988035505       -2.3465134490        3.2010073809
 H         -1.0285262903       -4.8351585794        1.6166008117
 H          0.0189489896       -3.4871491993        2.2244114615
 H         -2.3438111300       -3.1794541397        0.2465497011
