  62
        -98.93470898
 C         -1.8732967302       -0.8046177915        0.4896304590
 C         -2.3051461802        0.0011988195       -0.5909583603
 C         -3.4551418702        0.8886655692       -0.3235169195
 C         -3.9819875502        0.9319812680        0.9114343406
 C         -5.1832234702        1.7120514376        1.3684535313
 C         -6.4532397202        0.8482792577        1.2840964905
 C         -7.1582910402        0.8694246589       -0.0716522295
 H         -7.9546535802        0.1225078889       -0.0349615902
 H         -7.6300307902        1.8438664891       -0.2148005586
 C         -6.2657603402        0.5768936501       -1.2807454198
 H         -5.5968013302       -0.2548315901       -1.0526218606
 H         -6.9100642602        0.2564156709       -2.1017282501
 C         -5.4495624002        1.7951151205       -1.7381401686
 H         -5.8443802702        2.6888466501       -1.2549021078
 H         -5.5864467602        1.9386420615       -2.8119169385
 C         -3.9351930002        1.7028112303       -1.4938613087
 H         -3.4523210402        1.2478849111       -2.3645727891
 H         -3.5249812402        2.7145757902       -1.4061022877
 H         -6.1780591602       -0.1781677126        1.5403615195
 H         -7.1624744602        1.1934185169        2.0391423008
 H         -5.0076696503        1.9719546966        2.4145587016
 H         -5.2906191302        2.6269741081        0.7932872722
 O         -3.4875256102        0.1930498571        1.9430012999
 C         -2.4319954502       -0.6818823728        1.7637567091
 O         -2.0766201502       -1.2757021237        2.8019555185
 H          0.6014340598        0.3586502979        1.1415470901
 C          0.9997627098       -0.0067802513        0.2023128097
 C          0.4261188798       -1.1306908607       -0.3808386313
 C          0.9461010698       -1.5921042896       -1.5821576918
 C          1.9925164698       -0.9238240590       -2.1941813811
 C          2.5472705598        0.2056406505       -1.6221634301
 C          2.0443954298        0.6666894393       -0.4115703296
 N          2.6063587098        1.8063320488        0.1852305415
 S          4.2654259698        2.0017036888        0.1491833717
 O          4.5736841998        2.8082480777        1.3098095324
 O          4.6652288298        2.5538875400       -1.1214451178
 C          4.9466703498        0.3622330286        0.3317049601
 C          4.5998202698       -0.3688733524        1.4506064394
 C          5.1048190398       -1.6505461125        1.5967477982
 C          5.9454226198       -2.1763278516        0.6272991477
 C          6.2894087298       -1.4274285606       -0.4870734916
 C          5.7850693398       -0.1457375704       -0.6395945204
 H          6.0234867498        0.4698958704       -1.4916794598
 H          6.9448201198       -1.8376355999       -1.2382790120
 H          6.3342757798       -3.1756180517        0.7432600268
 H          4.8382902498       -2.2340505734        2.4634139277
 H          3.9480286298        0.0690006469        2.1897697598
 H          2.2184002698        2.0418127679        1.0859541517
 H          3.3446753398        0.7496778709       -2.1017582995
 H          2.3766248798       -1.2831331481       -3.1365653915
 H          0.5113134198       -2.4556948991       -2.0571239126
 C         -0.7222575102       -1.7862005414        0.3463658480
 H         -0.3929745302       -1.9849823624        1.3797955878
 C         -1.1225187102       -3.1304606809       -0.2433592632
 C         -2.5014013402       -3.6806370911       -0.0361628638
 C         -2.0624659402       -3.2537939698       -1.4030719434
 H         -1.8690537102       -4.0202215791       -2.1393515941
 H         -2.4689246502       -2.3450674094       -1.8172350625
 H         -3.2130208602       -3.0621749616        0.4919096468
 H         -2.6079758702       -4.7357097812        0.1668084852
 H         -0.3098646202       -3.8486165109       -0.1963776939
 O         -1.7756525702       -0.0133537794       -1.7314004603
