  62
        -98.94455677
 C         -1.7296940697       -1.0873064596       -0.0349867705
 C         -2.9455612197       -1.0988734396        0.7005252896
 C         -4.1129664496       -0.4899731293        0.0522606697
 C         -3.9833312296        0.0159925109       -1.1872319902
 C         -5.0718551295        0.7114443712       -1.9506902300
 C         -5.0492457093        2.2247236812       -1.6935732597
 C         -4.9796290992        2.5989202609       -0.2128477096
 H         -4.0182483492        2.2749087807        0.1930108102
 H         -5.0013382690        3.6892378109       -0.1517516994
 C         -6.1128533092        2.0161311709        0.6432601603
 H         -6.4931126891        2.8007425308        1.3007847105
 H         -6.9379488993        1.7032069911        0.0023637503
 C         -5.6955404493        0.8480693607        1.5389300101
 H         -4.8097140193        1.1270798104        2.1153690601
 H         -6.5034939293        0.6609939406        2.2512523101
 C         -5.4052888296       -0.4747337592        0.8186176298
 H         -6.2432308896       -0.7301889190        0.1667835198
 H         -5.3115924396       -1.2540918894        1.5804535297
 H         -4.1758041893        2.6487109811       -2.1946587697
 H         -5.9430162093        2.6643531714       -2.1399956996
 H         -6.0348930996        0.2970668813       -1.6589100400
 H         -4.9159476696        0.5304687714       -3.0155632900
 O         -2.8137250996       -0.0085909591       -1.8708065702
 C         -1.6576684597       -0.5403506694       -1.3160851304
 O         -0.6672624797       -0.4519603394       -2.0706411004
 O         -3.0477339397       -1.6046973198        1.8498843495
 C         -0.5260221298       -1.7166539099        0.6459114093
 C          0.3886011804       -0.6849753201        1.2608875095
 C          0.7377793705       -0.7442584704        2.6047673595
 C          1.6108780906        0.1816149593        3.1504525596
 C          2.1506658207        1.1878220694        2.3689378197
 C          1.8002147807        1.2587846797        1.0276202098
 C          0.9343127405        0.3243682699        0.4805907896
 H          0.6787839905        0.3811790201       -0.5671332603
 N          2.3607002308        2.2721760698        0.2132216999
 S          3.9964341607        2.0622074996       -0.0963292502
 O          4.7294090508        2.2827157093        1.1242043898
 O          4.3098398508        2.9417958798       -1.1992787200
 C          4.1294561005        0.3558105297       -0.5950445805
 C          3.8946739004        0.0355612699       -1.9169612606
 C          3.9065815802       -1.2967292400       -2.2958497508
 C          4.1392686001       -2.2801311402       -1.3469520010
 C          4.3660074602       -1.9424889705       -0.0216688209
 C          4.3596587104       -0.6115464805        0.3622977593
 H          4.5330734705       -0.3067832608        1.3812223394
 H          4.5415650401       -2.7100333506        0.7146344089
 H          4.1448751999       -3.3167955201       -1.6459534812
 H          3.7253762401       -1.5626273298       -3.3250463708
 H          3.7172406804        0.8301296401       -2.6243995504
 H          1.8774405808        2.3589274000       -0.6709871500
 H          2.8442478409        1.9090547192        2.7699127798
 H          1.8729572007        0.1206184591        4.1956584596
 H          0.3129985104       -1.5186204305        3.2263307093
 H         -0.9469750098       -2.3197768100        1.4614659293
 C          0.2739086301       -2.6314293498       -0.2627399809
 C          1.0549466999       -3.7559873301        0.3444077289
 C         -0.1782235601       -4.0462814497       -0.4562197011
 H         -0.0710102202       -4.4908294296       -1.4340544812
 H         -1.0677243602       -4.3618761897        0.0697093989
 H          2.0137443799       -4.0027070101       -0.0825835312
 H          1.0025891200       -3.8808136303        1.4150975489
 H          0.7011621701       -2.1223406898       -1.1170158908
