  62
        -98.94564444
 C          1.0948644085        1.4454558130        0.7546257251
 C          2.0037981604        1.4444058625       -0.3304532585
 C          3.0089190783        0.3716632246       -0.3206127423
 C          2.9890800731       -0.5441749188        0.6648264767
 C          3.9283981088       -1.7104727608        0.7660522876
 C          3.3691652295       -2.9515174825        0.0570241763
 C          2.8464299241       -2.6804555308       -1.3531090829
 H          2.5007683905       -3.6328823019       -1.7599229264
 H          1.9769221669       -2.0216820032       -1.2911305365
 C          3.8816384349       -2.0694065047       -2.3075928890
 H          3.8212664921       -2.5857248021       -3.2679721334
 H          4.8870616230       -2.2302515775       -1.9164729060
 C          3.6827499077       -0.5796355165       -2.5906369883
 H          2.6482926679       -0.3966444640       -2.8926171798
 H          4.3228165329       -0.3047961963       -3.4334210308
 C          4.0199552153        0.3674665927       -1.4325106372
 H          5.0161345812        0.1389950375       -1.0479707663
 H          4.0302428308        1.3864654398       -1.8303919138
 H          4.1554226556       -3.7074909197        0.0164348842
 H          2.5444295346       -3.3437785846        0.6532323764
 H          4.8867521466       -1.4316128647        0.3316498229
 H          4.0739737734       -1.9417666941        1.8225107463
 O          2.0788844151       -0.5287522536        1.6727092471
 C          1.1135698888        0.4620475183        1.7439639696
 O          0.3428651733        0.3611915024        2.7197046954
 H         -1.3192430550        0.2884501554        0.2708654010
 C         -1.5304067690        1.0510619202       -0.4654960306
 C         -0.9341631773        2.2999944493       -0.3358378399
 C         -1.2142073505        3.2733221020       -1.2845945493
 C         -2.0615465254        2.9907794311       -2.3426600456
 C         -2.6590972809        1.7498926758       -2.4631255289
 C         -2.3935966499        0.7714243678       -1.5109346293
 N         -2.9721266621       -0.5047953055       -1.5956226948
 S         -3.5337840168       -1.2331855891       -0.1948244909
 O         -4.5088999003       -2.1976487001       -0.6607228939
 O         -4.0178482381       -0.2533162140        0.7494942431
 C         -2.1435031009       -2.1208202538        0.4715561068
 C         -1.8175917569       -1.9719340452        1.8042698946
 C         -0.7793042086       -2.7238435384        2.3297710965
 C         -0.0933161994       -3.6113266353        1.5167572345
 C         -0.4269802523       -3.7442611882        0.1767981580
 C         -1.4632148028       -2.9942857216       -0.3542008336
 H         -1.7566762254       -3.0751414820       -1.3876809127
 H          0.1156951368       -4.4313587424       -0.4525826182
 H          0.7043029738       -4.2053570219        1.9356310937
 H         -0.5070137573       -2.6010274589        3.3655031711
 H         -2.3667595333       -1.2633041919        2.4039182489
 H         -3.6182156894       -0.6275722469       -2.3621490608
 H         -3.3240101519        1.5349207365       -3.2859897178
 H         -2.2648026452        3.7517726652       -3.0809022499
 H         -0.7622204442        4.2478975536       -1.2037095673
 C          0.0021610887        2.4983679139        0.8319501464
 H         -0.5625666880        2.2849808259        1.7514510177
 C          0.5853059537        3.8910380090        0.9292485961
 C         -0.2266416909        4.9982073524        1.5291184510
 C          0.9426187848        4.4350988681        2.2783518747
 H          1.8343497426        5.0364907130        2.3721255831
 H          0.7477083829        3.8072319973        3.1358662967
 H         -1.2184965502        4.7556151917        1.8804621866
 H         -0.1375318908        5.9896397254        1.1115217001
 H          1.2465425012        4.1286864230        0.1047019128
 O          1.9875587155        2.2956577738       -1.2573648008
