  62
        -98.93608465
 C         -2.4999405102       -0.9649950394        0.5898455091
 C         -2.8157512101        0.2819520209        1.1892252285
 C         -4.1816564600        0.7755352110        0.9888075882
 C         -5.0595682801        0.0336267308        0.2902823185
 C         -6.4929289600        0.3909103509        0.0044894482
 C         -6.6724682698        1.3137946803       -1.2088914622
 C         -6.2362674896        2.7638141803       -0.9946676329
 H         -6.6194493795        3.3411223200       -1.8384192132
 H         -6.7074414796        3.1541890908       -0.0921739731
 C         -4.7163692296        2.9638068202       -0.9113113929
 H         -4.2087990997        2.0853721699       -1.3168704925
 H         -4.4260484695        3.8146851998       -1.5317278133
 C         -4.1875377097        3.2310721208        0.4980450670
 H         -3.0989161196        3.3161660106        0.4452397370
 H         -4.5826343495        4.1811173610        0.8647585365
 C         -4.5260607499        2.1351815113        1.5170034575
 H         -5.5810829199        2.1830332216        1.7859975774
 H         -3.9263918499        2.3040274517        2.4148879374
 H         -6.1244282398        0.8898570698       -2.0534033020
 H         -7.7342027798        1.3107634503       -1.4659471223
 H         -7.0131913601       -0.5479179392       -0.1966290713
 H         -6.9382052000        0.8540431414        0.8853696580
 O         -4.7321324702       -1.1730384495       -0.2387297709
 C         -3.4457853903       -1.6939291296       -0.1328936606
 O         -3.3057371904       -2.7855615799       -0.7125289700
 O         -1.9900010700        0.9502066712        1.8689023982
 C         -1.0740203203       -1.4541302695        0.7638949794
 C         -0.1956376602       -0.9793220902       -0.3656567507
 C         -0.5756052001       -1.1353326508       -1.6954863107
 C          0.2532150600       -0.7042987814       -2.7150383109
 C          1.4771947701       -0.1242091314       -2.4315206811
 C          1.8617282200        0.0444789192       -1.1065477111
 C          1.0213259899       -0.3769019102       -0.0850056010
 H          1.3278707599       -0.2274420997        0.9398364990
 N          3.0851778001        0.6518587892       -0.7849179914
 S          3.9227995899        0.0800666397        0.5663272390
 O          3.8922233297       -1.3649311503        0.5859378297
 O          3.4216995899        0.7445891704        1.7427416886
 C          5.5646465000        0.6668928193        0.1957712088
 C          6.4745319599       -0.1871338211       -0.3983028008
 C          7.7363331300        0.2926243686       -0.7131745809
 C          8.0634293202        1.6109161887       -0.4334022116
 C          7.1394888503        2.4557694291        0.1639196880
 C          5.8765622602        1.9826316994        0.4823788881
 H          5.1285616902        2.5984478697        0.9540067678
 H          7.3982450904        3.4792315492        0.3825490775
 H          9.0457782902        1.9818436184       -0.6797388217
 H          8.4579399100       -0.3621964118       -1.1743695206
 H          6.1786548798       -1.2061328612       -0.5896512903
 H          3.6925339201        0.7629324387       -1.5854059314
 H          2.1262321801        0.2031800881       -3.2294656812
 H         -0.0525271700       -0.8324064519       -3.7426391708
 H         -1.5213081602       -1.6062044008       -1.9186596705
 H         -0.7167536203       -0.9573458491        1.6812007692
 C         -0.9630505505       -2.9541876894        0.9971685102
 C         -0.4071060706       -3.9121355900       -0.0085559693
 C          0.3830922594       -3.5794366995        1.2194074206
 H          0.4829761892       -4.3281948591        1.9908664909
 H          1.2551660195       -2.9508502197        1.1029906103
 H         -0.8731863407       -4.8826047199       -0.0830824389
 H         -0.0677450405       -3.5201768805       -0.9540945195
 H         -1.7772590006       -3.3263821190        1.6113092503
