  62
        -98.94525749
 C         -2.4539470921       -1.2014855061       -0.0701884855
 C         -3.5392613473       -0.8324387375        0.7645710861
 C         -4.4377969303        0.1979422885        0.2348467862
 C         -4.2011298711        0.7288336091       -0.9785171452
 C         -5.0358765565        1.7760740219       -1.6644045438
 C         -4.7042579772        3.2138213350       -1.2415184249
 C         -5.1695055434        3.6028945600        0.1623288656
 H         -5.0701468846        4.6871863311        0.2427272739
 H         -6.2276905527        3.3636984334        0.2721691424
 C         -4.3705933681        2.9489752723        1.2984546918
 H         -3.4269417248        2.5626195002        0.9052658842
 H         -4.1181346844        3.7036357429        2.0467859067
 C         -5.1054930288        1.8209141519        2.0227315042
 H         -5.9820520370        2.2242835218        2.5343709821
 H         -4.4343971041        1.4061184584        2.7789476813
 C         -5.5578636464        0.6734124983        1.1103041062
 H         -5.8655378784       -0.1645413064        1.7404152306
 H         -6.4075618859        0.9867671965        0.5043584588
 H         -3.6244824914        3.3612562094       -1.3221752312
 H         -5.1848880089        3.8830939626       -1.9588900186
 H         -4.8393194968        1.6783143747       -2.7342657510
 H         -6.0929100843        1.5773814762       -1.4853145255
 O         -3.1518359971        0.3446579677       -1.7523724688
 C         -2.2426614945       -0.6088819245       -1.3150595960
 O         -1.3238625966       -0.8376342437       -2.1264336255
 O         -3.7486263732       -1.3450883309        1.8955511296
 C         -1.4762031155       -2.2423896990        0.4512186804
 C         -0.1679724229       -1.5483036748        0.7372322045
 C         -0.0245717107       -0.8331568342        1.9234461636
 C          1.1330619020       -0.1254814796        2.1851896500
 C          2.1685708584       -0.1068867021        1.2663270268
 C          2.0273917936       -0.8013283176        0.0731763094
 C          0.8726384311       -1.5313516839       -0.1777048197
 H          0.7724320763       -2.0558857249       -1.1146438801
 N          3.0671018969       -0.7781306242       -0.8725246460
 S          3.7594206210        0.7032463874       -1.2526081273
 O          2.8342132550        1.7970977406       -1.0654838772
 O          4.3020060463        0.5376195303       -2.5837096831
 C          5.1089386532        0.8385641882       -0.0964764405
 C          5.2456083339        1.9764113540        0.6742303866
 C          6.3089910174        2.0632676488        1.5595389866
 C          7.2130026509        1.0167507634        1.6570285095
 C          7.0633360239       -0.1183028841        0.8740527580
 C          6.0033588448       -0.2107613313       -0.0135810103
 H          5.8530426494       -1.0732071636       -0.6409980277
 H          7.7680147723       -0.9304022054        0.9527869666
 H          8.0387368586        1.0861949423        2.3474129683
 H          6.4265264448        2.9452774761        2.1684408485
 H          4.5145003177        2.7623461884        0.5690969739
 H          2.8507104203       -1.2922341066       -1.7147814090
 H          3.0693756664        0.4530750855        1.4573317416
 H          1.2314782091        0.4207975170        3.1109881391
 H         -0.8420301070       -0.8292767089        2.6310397039
 H         -1.8988752540       -2.5824302849        1.4062377523
 C         -1.3538108991       -3.4312759856       -0.4778485277
 C         -0.7112827817       -4.6889327242        0.0238597149
 C         -2.1887273565       -4.6486309002       -0.2221708849
 H         -2.5866353658       -5.1859042636       -1.0700278496
 H         -2.8499867876       -4.6303157194        0.6315890224
 H         -0.0925073876       -5.2581552618       -0.6528439362
 H         -0.3677066694       -4.6961254348        1.0470819327
 H         -1.1911727887       -3.1544681874       -1.5124947226
