  62
        -98.94173009
 C         -2.7613281615       -0.5226015636       -0.3451336660
 C         -2.0162751042        0.3677559632       -1.1567088976
 C         -2.2200359884        1.8005509443       -0.8963545762
 C         -3.1134849223        2.1890341025        0.0298957378
 C         -3.3884432442        3.6115206897        0.4203514978
 C         -2.5114545998        4.0457890605        1.6027115444
 C         -1.0275157607        3.7194332655        1.4300621356
 H         -0.5050565260        4.1103209571        2.3063090036
 H         -0.8878131653        2.6351172333        1.4394403003
 C         -0.3902567598        4.2953311672        0.1581000319
 H          0.5791588531        4.7240072171        0.4204433863
 H         -1.0095347194        5.1028140689       -0.2355308693
 C         -0.1358272622        3.2627418817       -0.9419303608
 H          0.5280425893        3.7155355796       -1.6838768727
 H          0.3841745374        2.4015382359       -0.5115327141
 C         -1.3833164324        2.7668587430       -1.6860833224
 H         -1.9806604921        3.6206952616       -2.0124991836
 H         -1.0501863893        2.2205997328       -2.5732463160
 H         -2.6331632961        5.1212783295        1.7449497393
 H         -2.8683146928        3.5410212817        2.5035133395
 H         -4.4375323729        3.6902108732        0.7108460092
 H         -3.2086398469        4.2586564617       -0.4358343931
 O         -3.8527559042        1.3087982973        0.7519073995
 C         -3.6670515325       -0.0545283721        0.6126783947
 O         -4.3717508502       -0.7445291675        1.3768471400
 O         -1.2169276141        0.0125189641       -2.0648282876
 C         -2.5900615359       -2.0361391959       -0.3919072579
 C         -1.3255836324       -2.3823929891        0.3575950206
 C         -1.3733192501       -2.9711884544        1.6159786216
 C         -0.2129660174       -3.1817314655        2.3414746533
 C          1.0161260522       -2.7936790700        1.8370685163
 C          1.0704942633       -2.2068044418        0.5807256448
 C         -0.0873456330       -2.0273063332       -0.1579301967
 H         -0.0337763777       -1.5469490928       -1.1233443949
 N          2.3134999365       -1.7416762357        0.0748466990
 S          2.8012574145       -0.3342111144        0.8875493496
 O          3.2052747574       -0.7090499915        2.2194390465
 O          1.7721785877        0.6790790646        0.7996628062
 C          4.2256921027        0.1373210199       -0.0736572666
 C          5.4457660764       -0.4445277883        0.2119966838
 C          6.5432863061       -0.1130033078       -0.5662739114
 C          6.4021200341        0.7872578725       -1.6119830765
 C          5.1706060611        1.3629780091       -1.8860521593
 C          4.0683225532        1.0344247910       -1.1125038407
 H          3.0929501225        1.4616237270       -1.2867158824
 H          5.0632505104        2.0638165586       -2.6983141081
 H          7.2573527978        1.0440349805       -2.2169208695
 H          7.5028749258       -0.5570906767       -0.3561868060
 H          5.5071555944       -1.1327406200        1.0385139796
 H          2.2140708462       -1.4981826033       -0.9045524284
 H          1.9220772872       -2.9091414609        2.4093260901
 H         -0.2683260785       -3.6368004705        3.3190451062
 H         -2.3329597932       -3.2363968315        2.0365958434
 H         -3.4393192949       -2.4508495197        0.1667882594
 C         -2.6108048237       -2.6084750080       -1.7944499584
 C         -2.8740498595       -4.0725530550       -1.9729521727
 C         -3.9117941234       -3.0694737108       -2.3762517897
 H         -4.0918495174       -2.9046339037       -3.4278894034
 H         -4.7955523034       -2.9735502245       -1.7621726192
 H         -2.3404114311       -4.6006790685       -2.7480370717
 H         -3.0547114808       -4.6588603005       -1.0846336648
 H         -1.9091495204       -2.1353861026       -2.4678525919
