  62
        -98.94032341
 C         -1.6162382609       -1.4710497646       -0.0188322519
 C         -2.7672950408       -0.8927723354        0.5646651832
 C         -3.2985641764        0.3347290767       -0.0574080079
 C         -2.6502786960        0.8532593793       -1.1166524917
 C         -2.9664633351        2.1115811981       -1.8803758652
 C         -2.5299063319        3.3762132423       -1.1249533445
 C         -2.8945209531        3.3946239084        0.3569634500
 H         -2.4203177486        2.5418246124        0.8477565482
 H         -2.4525734770        4.2943970123        0.7942364533
 C         -4.3904638765        3.4093541728        0.6648213776
 H         -4.4945276879        3.5183477089        1.7474635492
 H         -4.8409365865        4.2883203070        0.1981272788
 C         -5.1814031126        2.1714008937        0.2352065865
 H         -5.3893734063        2.1882603340       -0.8313021097
 H         -6.1503340162        2.2142947794        0.7413115905
 C         -4.5456972611        0.8413023725        0.6263800144
 H         -4.3153663562        0.8560603118        1.6980508671
 H         -5.2933906340        0.0478598837        0.5039701870
 H         -1.4412007898        3.4509983048       -1.1915316188
 H         -2.9643112437        4.2452551708       -1.6227728201
 H         -2.4088671338        2.0585232604       -2.8181700549
 H         -4.0242824729        2.1501259875       -2.1230373850
 O         -1.5292800315        0.2777200269       -1.6317976981
 C         -0.9665024260       -0.8620853609       -1.0917498471
 O          0.0814151952       -1.2266556442       -1.6596698543
 H          0.1025668664       -0.5717152621        1.7635372434
 C          0.8517731236       -1.2866551199        1.4540091104
 C          0.4619609336       -2.4770246071        0.8512661790
 C          1.4479404718       -3.3748563143        0.4644727677
 C          2.7858365033       -3.0753140523        0.6604803425
 C          3.1689780268       -1.8683626016        1.2152425632
 C          2.1883620073       -0.9634748712        1.6052976619
 N          2.5132955185        0.3055693724        2.1343207755
 S          2.1281025427        1.6170599105        1.1580880943
 O          2.5551249640        2.7827605235        1.9035732278
 O          0.7364134486        1.5670257045        0.7951147716
 C          3.1847235832        1.4139927173       -0.2654818203
 C          2.8336442241        0.5127671428       -1.2504296698
 C          3.7126689706        0.3058102258       -2.3036668923
 C          4.9151308539        0.9933089128       -2.3533145775
 C          5.2511998515        1.8954750087       -1.3546954477
 C          4.3818965879        2.1045212556       -0.2969726318
 H          4.5977740253        2.7960631797        0.5015824826
 H          6.1856083985        2.4316969428       -1.3954786837
 H          5.5927341365        0.8251380108       -3.1755155689
 H          3.4437513915       -0.3973825097       -3.0755603044
 H          1.8903387579       -0.0097122258       -1.1989322669
 H          3.4799021993        0.3883494387        2.4209441588
 H          4.2129144123       -1.6214304125        1.3383467404
 H          3.5408261564       -3.7828489441        0.3535324793
 H          1.1726027318       -4.3015884842       -0.0114132727
 C         -1.0165691142       -2.6966573311        0.6479437349
 H         -1.4944659622       -2.7245585073        1.6423946293
 C         -1.3513490595       -4.0160676237       -0.0310246045
 C         -2.5579905767       -4.1490855186       -0.9100149314
 C         -1.1858747530       -4.2172961648       -1.5066007325
 H         -0.8285472666       -5.1746805774       -1.8565986466
 H         -0.8338636431       -3.3782713798       -2.0854365674
 H         -3.1407098364       -5.0558643945       -0.8462813058
 H         -3.1487636345       -3.2616210648       -1.0863533960
 H         -1.1297905125       -4.8676946626        0.6049052806
 O         -3.3329211674       -1.3772543854        1.5838836183
