  62
        -98.94453070
 C          1.3694699641        1.4699189116        0.4230253305
 C          1.7152451848        0.4437037003        1.3386704887
 C          2.8295869699       -0.4299536854        0.9540601388
 C          3.4416262314       -0.2304110534       -0.2264602463
 C          4.5740809814       -1.0583337809       -0.7590785456
 C          4.0655162324       -2.2039308103       -1.6441310529
 C          2.9446662969       -3.0316606167       -1.0138791501
 H          2.0371326302       -2.4267208087       -0.9375003886
 H          2.7155451554       -3.8455126301       -1.7061910166
 C          3.2804826579       -3.6179899066        0.3645497897
 H          2.9342203241       -4.6533779517        0.3924551196
 H          4.3616448638       -3.6317820885        0.5105573299
 C          2.6142243071       -2.8967680344        1.5379379240
 H          2.6937396098       -3.5365087751        2.4212688097
 H          1.5502681603       -2.7688051065        1.3181778860
 C          3.2074006464       -1.5297563274        1.9049444573
 H          2.8020878607       -1.2396360856        2.8787668010
 H          4.2927138684       -1.6114090244        1.9944952457
 H          4.9094008401       -2.8555302154       -1.8801478021
 H          3.6904101718       -1.7807547006       -2.5789810521
 H          5.1479617411       -1.4570760778        0.0753214862
 H          5.2195293160       -0.4116896228       -1.3565620409
 O          3.0649658237        0.7403916916       -1.0953907573
 C          1.9864621467        1.5741836155       -0.8249215367
 O          1.7010838224        2.3420345649       -1.7622210570
 O          1.1074245100        0.2600523669        2.4282392229
 C          0.1574603478        2.3214567466        0.7586722958
 C         -0.8859292939        2.1554006033       -0.3191086030
 C         -1.6122438540        3.1924062047       -0.8879577518
 C         -2.5681213499        2.9226549694       -1.8537958243
 C         -2.8347651847        1.6267898759       -2.2573703925
 C         -2.1093676139        0.5819321498       -1.6946376375
 C         -1.1493918795        0.8582766553       -0.7380836742
 H         -0.5686282479        0.0460835655       -0.3310810137
 N         -2.3238955148       -0.7513507104       -2.0699417644
 S         -2.0638122837       -1.9831199412       -0.9718657537
 O         -0.6527332471       -2.1923845386       -0.7653659892
 O         -2.7913173003       -3.1061027698       -1.5249403944
 C         -2.8596597835       -1.4387622725        0.5298712829
 C         -4.2362113926       -1.3176533694        0.5040061462
 C         -4.8936706611       -0.8602496646        1.6334310944
 C         -4.1663135080       -0.5279029379        2.7667340543
 C         -2.7872443640       -0.6614475872        2.7800751139
 C         -2.1240303685       -1.1219907828        1.6529594285
 H         -1.0497299574       -1.2243899499        1.6426072147
 H         -2.2123373828       -0.4034753834        3.6553178172
 H         -4.6757326814       -0.1649809772        3.6453964678
 H         -5.9670789180       -0.7608133146        1.6269851034
 H         -4.7671464369       -1.5966085460       -0.3916277740
 H         -3.1215956788       -0.9177921626       -2.6640513533
 H         -3.5817485831        1.4240557028       -3.0092304805
 H         -3.1193844250        3.7377017536       -2.2976929468
 H         -1.4186943294        4.2107131487       -0.5934851651
 H         -0.2478599890        1.8464018772        1.6695231061
 C          0.4435864424        3.7678216611        1.1302042194
 C          1.8139929923        4.2094475272        1.5468279073
 C          1.2306394884        4.6955953154        0.2556186467
 H          0.9166593627        5.7276122634        0.1944030817
 H          1.6222925467        4.2982499966       -0.6666802344
 H          1.9036679803        4.9028102847        2.3698007913
 H          2.6095660595        3.4793776350        1.5000391886
 H         -0.3826415397        4.2115244541        1.6776063687
