  62
        -98.93689560
 C          1.5748973398        1.6621991300       -0.3362039576
 C          1.3629144303        0.2768733301       -0.5466069086
 C          2.5824994906       -0.5412331895       -0.6383474685
 C          3.7934241904        0.0371026708       -0.5595638774
 C          5.1208942006       -0.6634157788       -0.6677327971
 C          5.6065879200       -1.2880280195        0.6474787528
 C          4.8503782401       -2.5409261000        1.0911608816
 H          4.8236700908       -3.2569739795        0.2693376911
 H          5.4286935098       -2.9937414804        1.8990473116
 C          3.4240401198       -2.2750860207        1.5931273909
 H          3.3115608493       -1.2134337709        1.8249146215
 H          3.2580579994       -2.8237899114        2.5228868005
 C          2.3213470604       -2.6886924004        0.6183737000
 H          1.3569499301       -2.4157683709        1.0538350996
 H          2.3405951208       -3.7723458203        0.4859448093
 C          2.4160448311       -2.0255081895       -0.7612371795
 H          3.2383427415       -2.4555597289       -1.3324004593
 H          1.4795999114       -2.2078790894       -1.2929618502
 H          5.5523935894       -0.5316961201        1.4340196233
 H          6.6582493302       -1.5520902592        0.5134875633
 H          5.8461879906        0.0918032516       -0.9783183462
 H          5.0683411813       -1.4318585283       -1.4394475976
 O          3.9528803299        1.3769829907       -0.3853421264
 C          2.8569341496        2.2100636303       -0.2476724265
 O          3.1485672792        3.4093611203       -0.0567958956
 O          0.2351224005       -0.2646657901       -0.6552576596
 C          0.4190047095        2.6483540796       -0.2003062477
 C         -0.5549308310        2.1426717487        0.8334217914
 C         -0.2230847818        2.3814684779        2.1678039918
 C         -1.0158830823        1.9176971870        3.1988548010
 C         -2.1689311219        1.2036297969        2.9264527999
 C         -2.5129796411        0.9590533177        1.6028095895
 C         -1.7073621106        1.4193940786        0.5685948703
 H         -2.0021418900        1.1800105891       -0.4351221900
 N         -3.6938679408        0.2707497875        1.3048328984
 S         -3.9959723997       -0.5277033616       -0.1208098323
 O         -4.0742665793        0.4080393391       -1.2146519517
 O         -5.2141116697       -1.2622311721        0.1596966466
 C         -2.6902508992       -1.7093456111       -0.3916314223
 C         -2.2270677584       -1.9065093401       -1.6745379421
 C         -1.2890057680       -2.8989633797       -1.9043409522
 C         -0.8328318584       -3.6735465303       -0.8506527025
 C         -1.3020291292       -3.4572250513        0.4352148174
 C         -2.2428595996       -2.4688212817        0.6695425775
 H         -2.6266177703       -2.2835139124        1.6599613974
 H         -0.9365244496       -4.0558042017        1.2546774172
 H         -0.1014383981       -4.4460827700       -1.0304561325
 H         -0.9139423574       -3.0592425690       -2.9031186021
 H         -2.6026595181       -1.2770822797       -2.4660253019
 H         -4.1818957411       -0.1342672831        2.0881701279
 H         -2.7972099923        0.8428342662        3.7264118393
 H         -0.7354046429        2.1133057465        4.2228425313
 H          0.6803315479        2.9345096980        2.3876117827
 H          0.8792151890        3.5531855195        0.2278712132
 C         -0.0634396798        3.0738982204       -1.5814204377
 C         -0.8127074490        2.2139557108       -2.5522275587
 C         -1.4772807697        3.4129309602       -1.9434023483
 H         -1.6447381196        4.2745736206       -2.5731060578
 H         -2.2534476801        3.2514228696       -1.2123444688
 H         -0.5221502784        2.2641412315       -3.5925203685
 H         -1.1139979389        1.2261480005       -2.2432495395
 H          0.6976750003        3.7062675609       -2.0348447168
