  62
        -98.94378560
 C          1.2875395998        1.4239517197        0.5972192716
 C          2.0917211304        1.0332862707       -0.5021324583
 C          3.1507026206        0.0559327908       -0.2073633284
 C          3.2847809502       -0.4235636599        1.0414361213
 C          4.2840171703       -1.4609987899        1.4621544311
 C          3.6933831909       -2.8743238800        1.3641591599
 C          3.0081135016       -3.1733225794        0.0300539294
 H          2.6757205119       -4.2137001895        0.0644373986
 H          2.1044516414       -2.5637756896       -0.0580459006
 C          3.8965926921       -2.9624326983       -1.2040922500
 H          3.7525618926       -3.8061235179       -1.8824420706
 H          4.9464500719       -2.9598069381       -0.9074832695
 C          3.5906921320       -1.6937745879       -2.0025486093
 H          4.1027703724       -1.7671032371       -2.9659038792
 H          2.5171814321       -1.6413001281       -2.2044713098
 C          4.0241702912       -0.3742644781       -1.3514698983
 H          5.0683475311       -0.4419359680       -1.0394291579
 H          3.9392903313        0.4119405223       -2.1074155378
 H          2.9530750406       -2.9983544408        2.1581955495
 H          4.4960856210       -3.5954018498        1.5313494098
 H          5.1691075406       -1.3815087191        0.8339420516
 H          4.5658993698       -1.2672414604        2.4987476214
 O          2.4804466196       -0.0443267409        2.0670256112
 C          1.4422963194        0.8497856789        1.8606990613
 O          0.7328546889        1.0497104580        2.8681113711
 H         -0.6016698994       -0.1262541105       -0.0801479602
 C         -1.0250173993        0.5412405298       -0.8147754100
 C         -0.7333443398        1.8970637499       -0.7471968990
 C         -1.2510009196        2.7330751203       -1.7271000987
 C         -2.0299504190        2.2114996307       -2.7465910294
 C         -2.3244476485        0.8614032107       -2.8035550504
 C         -1.8082309187        0.0163216602       -1.8273276007
 N         -2.0653061982       -1.3625503599       -1.8395082917
 S         -2.1759774586       -2.1944570908       -0.3956390223
 O         -0.8680475088       -2.3968331408        0.1759911382
 O         -2.9072157580       -3.3971066509       -0.7342511234
 C         -3.1810867694       -1.1575878819        0.6531765280
 C         -2.6474628601       -0.5468396324        1.7691122086
 C         -3.4544588307        0.2882519268        2.5264901688
 C         -4.7742729106        0.4961180566        2.1586811183
 C         -5.2998159199       -0.1330493028        1.0399221977
 C         -4.4972096393       -0.9653398921        0.2780589475
 H         -4.8723130987       -1.4796242416       -0.5917424730
 H         -6.3282983698        0.0259220770        0.7589511173
 H         -5.3955539711        1.1503348460        2.7496319284
 H         -3.0369503813        0.7746778664        3.3939426893
 H         -1.6152717002       -0.7189795022        2.0339285289
 H         -2.7412867878       -1.6737751597       -2.5205151522
 H         -2.9312976680        0.4601156010       -3.6004834109
 H         -2.4177241589        2.8697802711       -3.5091028491
 H         -1.0286277000        3.7871942704       -1.7083986279
 C          0.1043455195        2.3604996894        0.4209528217
 H         -0.5032440808        2.2130359086        1.3303684913
 C          0.4559931690        3.8402520696        0.3768114828
 C          1.7622403386        4.3452021296        0.9116243237
 C          1.4864292593        4.3930487005       -0.5597188264
 H          1.3016044192        5.3559488607       -1.0134021958
 H          1.9969878398        3.6940658811       -1.2023023766
 H          1.7646097081        5.2700443093        1.4691086643
 H          2.4707404187        3.6143031097        1.2747883736
 H         -0.4090527713        4.4670553191        0.5702351028
 O          1.9421686208        1.4664091214       -1.6736208280
