  62
        -98.94029125
 C          1.7914937872        0.7058467569        0.8929904898
 C          2.0497040276        0.3110692990       -0.4430964156
 C          3.4518170336        0.4136478749       -0.8799656936
 C          4.3833384244        0.8703783680       -0.0245159611
 C          5.8504449858        0.9715146103       -0.3236630821
 C          6.5889240632       -0.3093528820        0.0895446083
 C          5.9277090833       -1.5930218840       -0.4127156799
 H          6.5515144000       -2.4284829052       -0.0873122732
 H          4.9568243890       -1.7090442138        0.0747065109
 C          5.7398275731       -1.6575957749       -1.9348928111
 H          6.3919714314       -0.9300089120       -2.4194457051
 H          6.0437136990       -2.6472011369       -2.2827323651
 C          4.3006241897       -1.4422288487       -2.4073005329
 H          3.6296061238       -2.1056652687       -1.8554725353
 H          4.2441267739       -1.7242998431       -3.4620273468
 C          3.7654753866       -0.0096986795       -2.2873586871
 H          4.4660358902        0.6858160824       -2.7537760236
 H          2.8182902998        0.0364005008       -2.8324653573
 H          7.6125165074       -0.2543518319       -0.2854718021
 H          6.6286994835       -0.3493629235        1.1806617407
 H          5.9880761718        1.1561968049       -1.3871805139
 H          6.2593874284        1.8128798992        0.2383809481
 O          4.0965034212        1.2462603695        1.2484245292
 C          2.8069983218        1.1475413999        1.7447794290
 O          2.6940327720        1.4740957600        2.9433291598
 O          1.1696031196       -0.1078249880       -1.2374214536
 C          0.4013059101        0.6038650710        1.4964582353
 C         -0.2300565115       -0.7159927385        1.1255828510
 C          0.4637319442       -1.8914914204        1.4054087794
 C         -0.0687033324       -3.1225078905        1.0794236468
 C         -1.3209950093       -3.2121919997        0.4957317971
 C         -2.0279430779       -2.0484711268        0.2272632183
 C         -1.4781657212       -0.8109761980        0.5331233992
 H         -2.0342871616        0.0772785333        0.2872441016
 N         -3.3024468877       -2.0923855575       -0.3603778235
 S         -4.5100426040       -1.1242728725        0.2782093646
 O         -4.3360606485       -0.9308785396        1.6995007689
 O         -5.7451970610       -1.7605635850       -0.1290128122
 C         -4.3624745524        0.4313526221       -0.5741594596
 C         -4.2334649623        0.4273007242       -1.9487805266
 C         -4.1611802779        1.6391531778       -2.6167046705
 C         -4.2245591091        2.8273355462       -1.9044211153
 C         -4.3570220300        2.8143838738       -0.5241768593
 C         -4.4276753808        1.6053391776        0.1498941878
 H         -4.5220942724        1.5480521287        1.2227876896
 H         -4.4034115558        3.7391677703        0.0289288849
 H         -4.1674244130        3.7693499615       -2.4268462843
 H         -4.0544139694        1.6544503980       -3.6893457921
 H         -4.1879743068       -0.5146528283       -2.4690939835
 H         -3.6423871691       -3.0209235007       -0.5650494914
 H         -1.7432724766       -4.1742535969        0.2469675192
 H          0.4891680939       -4.0229082052        1.2901062019
 H          1.4377971986       -1.8233421815        1.8722304965
 H          0.5653728150        0.5956691316        2.5876033709
 C         -0.4948454634        1.7984747692        1.2033186564
 C          0.0833007560        3.1501374545        0.9115683302
 C         -0.6140822458        2.3845382082       -0.1704118525
 H         -1.5848827191        2.7263525170       -0.4984171509
 H         -0.0205933246        1.9378357953       -0.9517426542
 H         -0.4070780510        4.0156593962        1.3309835431
 H          1.1594678200        3.2367790964        0.8696683154
 H         -1.3966681220        1.7841121938        1.8089149017
