  62
        -98.94341266
 C         -1.8757364390       -0.8230503058        0.7093643243
 C         -2.2227665423       -0.4404656183       -0.6089946105
 C         -3.6587363811       -0.4690551764       -0.9230233516
 C         -4.5323759779       -0.8744073929        0.0167192154
 C         -6.0236463620       -0.8960174353       -0.1510713590
 C         -6.6523506748        0.4244208010        0.3158070196
 C         -5.9708691077        1.6683695556       -0.2546479191
 H         -6.5165144334        2.5378912916        0.1184102766
 H         -4.9549979270        1.7327700448        0.1422209339
 C         -5.9181375806        1.7166602147       -1.7880726469
 H         -6.6480167784        1.0220937868       -2.2055507117
 H         -6.2004485390        2.7192848901       -2.1161718812
 C         -4.5403905585        1.4238196328       -2.3854031818
 H         -4.5640541161        1.6981199240       -3.4434031844
 H         -3.7889620105        2.0529744775       -1.9012782484
 C         -4.0727558924       -0.0346602752       -2.3007219173
 H         -3.1804219992       -0.1337923504       -2.9254937415
 H         -4.8470932427       -0.6936240781       -2.6984011032
 H         -7.7069649117        0.4236620596        0.0343777687
 H         -6.5917980370        0.4703647458        1.4057347813
 H         -6.4260989912       -1.7124715600        0.4508716414
 H         -6.2644159926       -1.0755774294       -1.1969306270
 O         -4.1557626618       -1.2676455780        1.2609458445
 C         -2.8245323645       -1.2357485186        1.6436027894
 O         -2.6174780977       -1.5912686145        2.8221637715
 O         -1.3806698363       -0.0899260533       -1.4754424862
 C         -0.4216564267       -0.7979444008        1.1401707509
 C          0.1730810964        0.5760280086        0.9453901227
 C         -0.5882998971        1.7024986989        1.2458621928
 C         -0.0702267101        2.9718157139        1.0802566014
 C          1.2287740114        3.1465616914        0.6365591513
 C          2.0055521270        2.0304608217        0.3547671734
 C          1.4747186553        0.7559792505        0.5030762953
 H          2.0942013042       -0.0959229304        0.2770984419
 N          3.3249997741        2.1713094647       -0.0990309756
 S          4.5171557691        1.1448356566        0.4690394731
 O          4.2603982571        0.7279669127        1.8277034970
 O          5.7532752429        1.8667722314        0.2511203060
 C          4.4809807722       -0.2590764067       -0.6249509241
 C          4.7699145461       -1.5082936095       -0.1125866059
 C          4.7991795909       -2.5962664654       -0.9713370442
 C          4.5396313558       -2.4163928890       -2.3210919534
 C          4.2516402361       -1.1548837129       -2.8197366162
 C          4.2260360641       -0.0623699468       -1.9676603867
 H          4.0031400425        0.9299809760       -2.3223646774
 H          4.0464421454       -1.0193694855       -3.8694678847
 H          4.5602818639       -3.2643593127       -2.9874487112
 H          5.0225835161       -3.5779166588       -0.5842498659
 H          4.9537010590       -1.6051499060        0.9456236266
 H          3.6536822100        3.1234429972       -0.1667711417
 H          1.6369723760        4.1378787935        0.5099692070
 H         -0.6793458504        3.8343518211        1.3063191389
 H         -1.5999969908        1.5690486845        1.6052526256
 H         -0.4170146923       -1.0171783571        2.2187639106
 C          0.3447764336       -1.8889756003        0.4195799321
 C          1.4996370694       -2.5755801468        1.0825238456
 C          0.2025417646       -3.3022445068        0.8959274655
 H          0.1543069149       -4.0923833842        0.1620416288
 H         -0.4222997205       -3.4705535226        1.7613170729
 H          2.3409924488       -2.8672611952        0.4720401088
 H          1.7681708533       -2.2567566792        2.0788199959
 H          0.3937567647       -1.7219467380       -0.6504692955
