  62
        -98.94795935
 C         -1.2582733102       -0.7699515802        0.3919605398
 C         -2.0994435304       -0.5886685098       -0.7316757999
 C         -3.0600770705        0.5174051600       -0.6333781592
 C         -3.0468943905        1.3235653295        0.4435031411
 C         -3.9425346507        2.5111045392        0.6715062419
 C         -5.3150909105        2.1557973487        1.2597723619
 C         -6.2813213906        1.4729790290        0.2908572717
 H         -7.2655362105        1.4793666986        0.7634055719
 H         -6.3547755808        2.0639027294       -0.6226566679
 C         -5.9103990404        0.0248758792       -0.0581354090
 H         -5.1952278302       -0.3544204610        0.6752672307
 H         -6.8007348002       -0.6044528510        0.0068245208
 C         -5.3261938406       -0.1601249000       -1.4586659692
 H         -5.0666393104       -1.2141299399       -1.5852344798
 H         -6.0801283307        0.0936740602       -2.2070506890
 C         -4.0669775808        0.6728770603       -1.7328244690
 H         -4.3298201310        1.7225439604       -1.8640018784
 H         -3.6071511508        0.3097316809       -2.6553822693
 H         -5.1651620103        1.5192829583        2.1348674116
 H         -5.7731942306        3.0870670784        1.6008588625
 H         -4.0744077609        3.0544354696       -0.2648241678
 H         -3.4206395407        3.1615998989        1.3770815821
 O         -2.1733079803        1.1577763791        1.4724637909
 C         -1.2669936301        0.1103612193        1.4734578303
 O         -0.5268724000        0.0710832889        2.4789248401
 O         -2.0530753804       -1.3078199893       -1.7636289403
 C         -0.2408918199       -1.8952173000        0.4064826191
 C          0.7897046798       -1.6848679693       -0.6774669910
 C          1.3280081399       -2.7162744988       -1.4366744915
 C          2.2976408497       -2.4497270882       -2.3882586816
 C          2.7720911694       -1.1649904980       -2.5831254910
 C          2.2441506694       -0.1277278285       -1.8231109704
 C          1.2556180096       -0.3951797491       -0.8907115704
 H          0.8328984795        0.4239153605       -0.3295756699
 N          2.6986086391        1.1927966817       -1.9668568199
 S          2.8523944492        2.1422187010       -0.5962942094
 O          1.5605497192        2.6068929506       -0.1561761890
 O          3.7918228689        3.1738607514       -0.9836103591
 C          3.6064738696        1.0654588406        0.6105740199
 C          4.9285455896        0.7205298309        0.3998323496
 C          5.5435509399       -0.1596775394        1.2737122490
 C          4.8269563302       -0.6850625001        2.3387098289
 C          3.5044501801       -0.3244411204        2.5402873993
 C          2.8830561098        0.5595819799        1.6707900098
 H          1.8523529798        0.8465848997        1.8128405301
 H          2.9391225603       -0.7260871009        3.3663529392
 H          5.3010508304       -1.3765865803        3.0171873185
 H          6.5743605999       -0.4359217392        1.1215485287
 H          5.4535215894        1.1597799814       -0.4328496503
 H          3.4820641990        1.3077156021       -2.5930235699
 H          3.5349252393       -0.9622661675       -3.3188626010
 H          2.6991943597       -3.2579148378       -2.9802183220
 H          0.9835893901       -3.7265807890       -1.2888802620
 H          0.2807747102       -1.8174456704        1.3727593491
 C         -0.9313144697       -3.2412525301        0.3329171486
 C         -0.3335797194       -4.4353999303        1.0124912379
 C         -1.5660987894       -3.7935862208        1.5727735584
 H         -2.5084890393       -4.3126909810        1.4829405483
 H         -1.4752460294       -3.2098738913        2.4777528887
 H         -0.4323480393       -5.4008298601        0.5395783974
 H          0.5947467107       -4.2957639504        1.5453790678
 H         -1.4532577598       -3.3898330397       -0.6050113814
