  62
        -98.94041891
 C          1.9231559105        1.2392748396        0.4930161388
 C          2.0122479009       -0.0739984003        1.0270506291
 C          3.2237735011       -0.8331839200        0.7006322492
 C          4.1838136309       -0.2607990699       -0.0477149510
 C          5.5054071110       -0.8758384996       -0.4208839010
 C          5.4495659112       -1.7874963399       -1.6540145708
 C          4.7597503516       -3.1339454000       -1.4331069404
 H          4.9797424117       -3.7542926902       -2.3042476303
 H          5.1974377518       -3.6265022697       -0.5641573304
 C          3.2370611616       -3.0421903904       -1.2637003103
 H          2.7554851517       -3.8057970907       -1.8789297001
 H          2.8875448913       -2.0729754406       -1.6276844005
 C          2.7451259017       -3.2396591002        0.1698365097
 H          1.6579607117       -3.1297168805        0.1695888698
 H          2.9789657620       -4.2539672601        0.5005930699
 C          3.3280478115       -2.2480404999        1.1855444095
 H          2.7526609516       -2.3246337698        2.1113796395
 H          4.3670726716       -2.4992559095        1.3985218595
 H          4.9508847010       -1.2505511602       -2.4643821409
 H          6.4791728012       -1.9771282497       -1.9662083008
 H          5.9008185612       -1.4348629793        0.4278477991
 H          6.1826384508       -0.0465767295       -0.6368072112
 O          4.0628890105        0.9962486600       -0.5445761613
 C          2.9277247903        1.7657668097       -0.3199406314
 O          2.9627293699        2.8699949996       -0.8978244717
 O          1.1213838711       -0.5818886703        1.7573818592
 C          0.6761862403        2.0272569393        0.8543056887
 C         -0.4035405398        1.8963004588       -0.1943880312
 C         -0.1339541799        2.1133251586       -1.5411105513
 C         -1.1316507299        1.9773450881       -2.4898931312
 C         -2.4190508198        1.6340757678       -2.1158473810
 C         -2.7018828897        1.4268047580       -0.7730503510
 C         -1.6969296696        1.5566795085        0.1780317090
 H         -1.9214941095        1.3752473687        1.2204789990
 N         -4.0197386395        1.0780002877       -0.4022082808
 S         -4.5310218291       -0.4693419325       -0.7969363104
 O         -4.1955273091       -0.7294584727       -2.1724141404
 O         -5.9316369791       -0.5278715028       -0.4490081003
 C         -3.5996539488       -1.5285732520        0.2948924498
 C         -4.2254409185       -2.0754943019        1.3978914899
 C         -3.4750088483       -2.8206838115        2.2930049301
 C         -2.1142227882       -2.9842715212        2.0825711900
 C         -1.4999281085       -2.4241955913        0.9731774098
 C         -2.2478344987       -1.6937520717        0.0639098797
 H         -1.7987219789       -1.2500496117       -0.8106676204
 H         -0.4358011384       -2.5220854610        0.8320270898
 H         -1.5220685080       -3.5455462809        2.7879409601
 H         -3.9487835181       -3.2605726415        3.1558867502
 H         -5.2826550086       -1.9088644222        1.5279821300
 H         -4.2203821995        1.2495272179        0.5736678092
 H         -3.2031493398        1.5085591274       -2.8442239109
 H         -0.9047198300        2.1437135679       -3.5322421712
 H          0.8659131300        2.3909375888       -1.8381744914
 H          0.3001661505        1.5600326994        1.7750083588
 C          0.9406297999        3.4939556795        1.1365738083
 C          0.0045282197        4.2474039494        2.0309662782
 C          1.3866965099        3.9119170199        2.5039665682
 H          2.1148124696        4.7046122601        2.5864861080
 H          1.4964979501        3.1400682201        3.2518769584
 H         -0.2219933406        5.2742572693        1.7887828580
 H         -0.8227444101        3.7062630093        2.4644666184
 H          1.3650662797        4.0216479794        0.2926145982
