  62
        -98.93906215
 C         -2.4691473343       -1.0117813874        0.3887657563
 C         -2.7186708979        0.1763851555        1.1259627837
 C         -4.0325583819        0.8033568660        0.9377413361
 C         -4.9223413805        0.2224477722        0.1128263841
 C         -6.2795083243        0.7729981768       -0.2141503532
 C         -6.2279531002        1.6789168043       -1.4523449067
 C         -5.1172666155        2.7281716400       -1.4037337006
 H         -4.1482723555        2.2243030615       -1.4348787927
 H         -5.1962576594        3.3281008336       -2.3129013670
 C         -5.1684043270        3.6498803253       -0.1772024782
 H         -6.1573909411        3.6041547843        0.2800748260
 H         -5.0099644376        4.6791984941       -0.5055565888
 C         -4.1067104280        3.3534009232        0.8837939037
 H         -3.1208270911        3.3044523753        0.4139702276
 H         -4.0900578501        4.1869543516        1.5911435209
 C         -4.3156342889        2.0692749791        1.6964899832
 H         -3.6062648876        2.0838558765        2.5292653322
 H         -5.3273303471        2.0538402275        2.1072125469
 H         -7.1947048263        2.1744467515       -1.5576162267
 H         -6.0683498328        1.0526331823       -2.3329461923
 H         -6.9503122086       -0.0639912183       -0.4145205213
 H         -6.6544989060        1.3303329736        0.6420058960
 O         -4.6600346166       -0.9246146493       -0.5588941561
 C         -3.4330506193       -1.5649380146       -0.4550957184
 O         -3.3564074380       -2.5945828532       -1.1534443697
 H          1.1742242200       -0.2111698820        0.7206285379
 C          0.9858145291       -0.5722971391       -0.2802238870
 C         -0.1573833127       -1.3105440273       -0.5493102003
 C         -0.3846968917       -1.7433975380       -1.8519793859
 C          0.5205110233       -1.4461858566       -2.8540481328
 C          1.6742738060       -0.7340867962       -2.5767679190
 C          1.9056661514       -0.2894131994       -1.2805292342
 N          3.0550626919        0.4540400305       -0.9695839772
 S          3.7710813217        0.2180864719        0.5419375796
 O          3.7793406465       -1.1897831148        0.8693304912
 O          3.1404380185        1.0930457550        1.4981109530
 C          5.4289555979        0.7845440274        0.2098181199
 C          5.6909548695        2.1409427781        0.2548435931
 C          6.9716138427        2.5853275772       -0.0331275866
 C          7.9630243013        1.6717982838       -0.3596608904
 C          7.6856160701        0.3135674696       -0.3983919219
 C          6.4065307089       -0.1377165017       -0.1129915048
 H          6.1465426814       -1.1840512637       -0.1217812623
 H          8.4594015379       -0.3941950465       -0.6486067613
 H          8.9591222784        2.0205678725       -0.5818324591
 H          7.1918134480        3.6401331232       -0.0005392088
 H          4.8914381809        2.8115230441        0.5238008273
 H          3.7370411807        0.4574853612       -1.7157228580
 H          2.3866724847       -0.5175084491       -3.3583914082
 H          0.3322967103       -1.7860413888       -3.8614023787
 H         -1.2790897450       -2.3066313778       -2.0689142490
 C         -1.1047036915       -1.6515809822        0.5768770330
 H         -0.6991645794       -1.1949873634        1.4908633907
 C         -1.1544254880       -3.1544782994        0.7786443699
 C          0.0497006996       -3.8402310366        1.3490080347
 C         -1.1980561450       -3.7090866934        2.1689754469
 H         -1.7903689945       -4.5929537330        2.3523832496
 H         -1.1975460580       -3.0051225800        2.9887341022
 H          0.3143494767       -4.8151089533        0.9690955917
 H          0.9003775723       -3.2253230684        1.6067050410
 H         -1.7172667056       -3.6745487699        0.0147557686
 O         -1.8783169594        0.6864881039        1.9162899221
