  62
        -98.94216116
 C         -2.7884632785       -0.2844088115        0.4635089797
 C         -2.4413242905        0.2771496063       -0.7897879803
 C         -2.4364794419        1.7444018629       -0.8477073877
 C         -2.8028633597        2.4593587191        0.2320731887
 C         -2.8938057972        3.9593521805        0.3140414009
 C         -1.5654741287        4.6507313734        0.6495905436
 C         -0.5346217883        4.6542280747       -0.4797619718
 H         -0.9917812292        5.0501717362       -1.3869927704
 H          0.2615317489        5.3419543840       -0.1882190470
 C          0.0820077521        3.2798133204       -0.7735756643
 H         -0.1008841893        2.6061815021        0.0672366680
 H          1.1659666791        3.3685821968       -0.8739935958
 C         -0.4216663149        2.6107827719       -2.0520337778
 H         -0.1260293386        3.2083845647       -2.9176267161
 H          0.0737945671        1.6388825585       -2.1328387758
 C         -1.9406556097        2.3956095091       -2.1025421852
 H         -2.4484757513        3.3460527625       -2.2685900108
 H         -2.1646791764        1.7264550257       -2.9368694755
 H         -1.1363274510        4.1726204860        1.5331271455
 H         -1.7932247864        5.6870690277        0.9089255369
 H         -3.2825400779        4.3529081261       -0.6252749673
 H         -3.6084512315        4.1831610629        1.1090152571
 O         -3.1665133907        1.8781344866        1.4069843428
 C         -3.1291131967        0.5010561753        1.5633716940
 O         -3.4163071337        0.1055525628        2.7119826803
 H         -0.3769856228       -0.7419258620        1.1681927124
 C         -0.2806702685       -1.6583644712        0.5965157446
 C         -1.4292578198       -2.3486747692        0.2304353766
 C         -1.2863806315       -3.5224380104       -0.4978451346
 C         -0.0298496889       -3.9725493150       -0.8656729843
 C          1.1087506999       -3.2706604979       -0.5156869563
 C          0.9774591354       -2.1006190652        0.2203867935
 N          2.1352532233       -1.3730647992        0.5903940960
 S          2.9779631541       -0.6519925746       -0.6899164023
 O          2.2248424347        0.4614271452       -1.2236069951
 O          3.3578155503       -1.6772252819       -1.6266928961
 C          4.4168856854       -0.0552352612        0.1757018270
 C          4.4725600310        1.2670228814        0.5710750098
 C          5.5823030942        1.7111067932        1.2729848791
 C          6.6094749528        0.8280220111        1.5690928041
 C          6.5384602172       -0.4973426710        1.1661457555
 C          5.4322320329       -0.9467115360        0.4631162035
 H          5.3364664883       -1.9643196930        0.1229423611
 H          7.3400548591       -1.1800338397        1.3975251867
 H          7.4716706192        1.1760898320        2.1156958570
 H          5.6406335906        2.7414127362        1.5853511781
 H          3.6537657898        1.9195364323        0.3119164990
 H          1.8989499433       -0.6340522877        1.2416097968
 H          2.0884728610       -3.5976968951       -0.8217055637
 H          0.0634258763       -4.8822724352       -1.4394151538
 H         -2.1612160992       -4.0802017172       -0.7898460890
 C         -2.7703880683       -1.7910616893        0.6439649748
 H         -2.9035597777       -1.9738616312        1.7207934043
 C         -3.9333107502       -2.4137555507       -0.1018681303
 C         -4.5842770295       -3.6622765359        0.4110521365
 C         -5.2988666223       -2.3491853002        0.5111390462
 H         -6.1458438931       -2.1690331702       -0.1336591100
 H         -5.3818171129       -1.8814415839        1.4815461350
 H         -4.9456020526       -4.3863692460       -0.3036131693
 H         -4.1919790003       -4.0943060215        1.3192055758
 H         -3.8580911587       -2.2752047104       -1.1746570965
 O         -2.1529457562       -0.4088566462       -1.8049571965
