  62
        -98.94057364
 C          2.0896284468        0.9573394680        0.2440256155
 C          1.9131781926       -0.0539211016       -0.7330887019
 C          2.1104821805       -1.4366280271       -0.2690280960
 C          2.4245325990       -1.6713914630        1.0166357862
 C          2.6958088589       -3.0256107303        1.6043697390
 C          4.1841164681       -3.3899593454        1.5056988517
 C          4.7823636014       -3.1778909107        0.1150628902
 H          4.7757666572       -2.1102810229       -0.1157169426
 H          5.8272055454       -3.4923463465        0.1592136449
 C          4.0656824590       -3.9410902901       -1.0074687949
 H          3.4562728133       -4.7394013724       -0.5825046954
 H          4.8157116623       -4.4097194537       -1.6479028291
 C          3.1927889353       -3.0671894102       -1.9102630202
 H          3.7735181180       -2.2139518661       -2.2694475295
 H          2.9048919158       -3.6585564205       -2.7835329316
 C          1.9028365125       -2.5351888160       -1.2733303871
 H          1.2858662504       -2.1013706137       -2.0665817246
 H          1.3418766858       -3.3591032975       -0.8259517857
 H          4.3031348487       -4.4342534829        1.7998956118
 H          4.7381581907       -2.7705652089        2.2146054046
 H          2.4021101395       -3.0066262352        2.6552986404
 H          2.0918000549       -3.7664406931        1.0836931051
 O          2.5840269654       -0.6784074069        1.9282206546
 C          2.4021916545        0.6448845161        1.5697887452
 O          2.5602639975        1.4522707703        2.5095075793
 H         -0.3660812542        1.0540530302       -0.7884256869
 C         -0.6073484422        1.9378210833       -0.2185360207
 C          0.3989064458        2.7752759441        0.2383586816
 C          0.0445924527        3.9152432394        0.9508085903
 C         -1.2840566393        4.1962213597        1.2142082138
 C         -2.2813829286        3.3326385743        0.7986053896
 C         -1.9370117157        2.1935204446        0.0799304482
 N         -2.9141375311        1.2839947826       -0.3555638432
 S         -2.5172441193       -0.3613232472       -0.3041187083
 O         -1.7125002266       -0.6416862186        0.8640501358
 O         -1.9717474687       -0.7494150488       -1.5794895383
 C         -4.1424766443       -1.0756099859       -0.1192506454
 C         -4.9348049024       -1.2245683327       -1.2422092621
 C         -6.2096383590       -1.7484771408       -1.0978494131
 C         -6.6690665758       -2.1119700654        0.1595027585
 C         -5.8621693118       -1.9581393107        1.2767982639
 C         -4.5865499842       -1.4331050025        1.1395839127
 H         -3.9198058263       -1.3019457614        1.9769466696
 H         -6.2199456783       -2.2447267744        2.2525583748
 H         -7.6610299111       -2.5207384006        0.2691059093
 H         -6.8384500478       -1.8721265622       -1.9646699218
 H         -4.5297161694       -0.9373800521       -2.1985366643
 H         -3.8252921580        1.4612391303        0.0455785334
 H         -3.3161909586        3.5346745864        1.0297371046
 H         -1.5447459630        5.0840665638        1.7699246228
 H          0.8201554258        4.5708113865        1.3178219654
 C          1.8506874529        2.4366074745       -0.0143279137
 H          2.4494159838        2.9743768706        0.7349800144
 C          2.2711635346        2.9121015339       -1.3908669658
 C          2.6601327152        4.3461287355       -1.5824681730
 C          3.7037718369        3.2720856777       -1.6393654119
 H          4.1380346259        3.0171812284       -2.5941508199
 H          4.3904463880        3.1834084189       -0.8097731597
 H          2.6473763401        4.9911140472       -0.7171914836
 H          2.3755021429        4.8355671345       -2.5010290770
 H          1.7350866993        2.4219145168       -2.1928227380
 O          1.6093688703        0.1586351002       -1.9375314748
