  62
        -98.93514318
 C         -2.2508764084       -0.5108571012        0.1988963794
 C         -3.5244069203       -0.9381998210        0.6387752557
 C         -4.6321899543        0.0210094029        0.4870044853
 C         -4.3874104606        1.2305667115       -0.0511645948
 C         -5.2980847151        2.4173299470       -0.2894531659
 C         -6.8153938195        2.2669197628       -0.2148492705
 C         -7.4279803161        1.4077258946       -1.3203328117
 H         -8.4932485721        1.2897849977       -1.1104202278
 H         -7.3327908416        1.9425485904       -2.2687106416
 C         -6.8022499374        0.0276202980       -1.5057688481
 H         -7.3291619210       -0.4710448258       -2.3238183271
 H         -5.7602291466        0.1353370888       -1.8141492277
 C         -6.8664462579       -0.8887700608       -0.2855497248
 H         -6.5350967163       -1.8812476287       -0.6024629066
 H         -7.8997479571       -0.9744485221        0.0560211003
 C         -5.9890453380       -0.4676257702        0.9061277485
 H         -6.4898773504        0.2734461589        1.5243073177
 H         -5.8170133046       -1.3514745576        1.5272471097
 H         -7.1097517615        1.8971216223        0.7628000222
 H         -7.2316195543        3.2734162359       -0.3109994482
 H         -4.9891301964        3.1774521034        0.4366859699
 H         -5.0248068839        2.8067896034       -1.2753140804
 O         -3.1348057532        1.6016938119       -0.4525538230
 C         -2.0443617876        0.7542349712       -0.3462501851
 O         -0.9749231986        1.2396050367       -0.7637842026
 O         -3.7284669253       -2.0715215235        1.1513150481
 C         -1.0712986444       -1.4574960894        0.3221763160
 C          0.0182290633       -0.8184322551        1.1465331738
 C         -0.3057037812       -0.3118978945        2.4031994861
 C          0.6535968826        0.2971049287        3.1872607449
 C          1.9553382798        0.4178297245        2.7329900324
 C          2.2935169365       -0.0966544311        1.4875354213
 C          1.3287975804       -0.7207054785        0.7073858993
 H          1.6145969331       -1.1046354818       -0.2564927519
 N          3.6253339731       -0.0293538275        1.0339463863
 S          3.9596830999        0.3713130753       -0.5723705344
 O          3.4443299884        1.6865761801       -0.8841855706
 O          3.5427813347       -0.7076975536       -1.4301643005
 C          5.7418552925        0.4168612644       -0.4967439943
 C          6.3954341243        1.6331068522       -0.4454076966
 C          7.7792984672        1.6482457781       -0.3647861868
 C          8.4818048996        0.4532426669       -0.3338681487
 C          7.8117430946       -0.7602352842       -0.3860310010
 C          6.4287327038       -0.7821269818       -0.4685108587
 H          5.8661942555       -1.6994893016       -0.5203210153
 H          8.3615835676       -1.6872646441       -0.3637705989
 H          9.5584449213        0.4677578367       -0.2712794572
 H          8.3027077626        2.5900142568       -0.3270952761
 H          5.8078308302        2.5365572964       -0.4800729664
 H          4.1970055531        0.5450248091        1.6406171306
 H          2.7034701912        0.9052342571        3.3400912407
 H          0.3860138405        0.6904828344        4.1565981569
 H         -1.3266579789       -0.3952249998        2.7510622843
 H         -1.4528394956       -2.3309071047        0.8722894511
 C         -0.6120545512       -1.9094509687       -1.0475980236
 C          0.0654173112       -3.2354460472       -1.2157879321
 C         -1.3307109862       -3.0375219292       -1.7226341126
 H         -1.4920111732       -2.9810826263       -2.7887674951
 H         -2.1425164559       -3.5006607957       -1.1809033114
 H          0.8701298084       -3.3112359796       -1.9316348649
 H          0.2025963992       -3.8398717772       -0.3319403659
 H         -0.2790023054       -1.0848779184       -1.6699347582
