  62
        -98.93910818
 C          1.8860791234       -0.3720985648        0.0197747089
 C          2.9642572879       -0.6256612449       -0.8624822577
 C          4.2090436584        0.1247555082       -0.6257522376
 C          4.2596121950        1.0156309287        0.3821318206
 C          5.3615866375        1.9535066264        0.8290012268
 C          6.7930157436        1.7712809460        0.3310524312
 C          7.4868178240        0.5037194348        0.8286521109
 H          8.4586371922        0.4307434517        0.3355729108
 H          7.6655756361        0.6043833763        1.9022037575
 C          6.7192076171       -0.7975883302        0.6095650420
 H          5.7896064489       -0.7758429856        1.1819613448
 H          7.3251010109       -1.6142545757        1.0114230795
 C          6.3982519126       -1.1303494877       -0.8461969497
 H          7.3159042583       -1.1164301772       -1.4373692283
 H          6.0003407403       -2.1483479956       -0.8703301061
 C          5.3644226579       -0.2136506520       -1.5232346622
 H          5.8291881813        0.6908110767       -1.9084116456
 H          4.9420632662       -0.7530895572       -2.3759416734
 H          6.8243026903        1.8224738032       -0.7532975402
 H          7.3627326309        2.6268456586        0.7040444692
 H          5.3564229260        1.9181473373        1.9231317542
 H          5.0246146779        2.9589821980        0.5529362399
 O          3.1844773475        1.2460321336        1.1906114394
 C          1.9849366591        0.5681002792        1.0433458999
 O          1.1180751342        0.8903662439        1.8783162503
 O          2.8898976286       -1.4455694884       -1.8159101202
 C          0.5879130932       -1.1303502710       -0.2013231836
 C         -0.4532530915       -0.1648646636       -0.7088094356
 C         -0.4957802688        0.1461746060       -2.0648088423
 C         -1.4219689544        1.0476747364       -2.5561820445
 C         -2.3222790990        1.6637345657       -1.7039188779
 C         -2.2795048872        1.3673047527       -0.3487816521
 C         -1.3596940079        0.4504181979        0.1410750752
 H         -1.3305537323        0.2407301593        1.1986090814
 N         -3.2018108960        1.9879529950        0.5238570200
 S         -4.8039682387        1.5587284536        0.2850636742
 O         -5.2641394703        2.1352463092       -0.9524884037
 O         -5.5056192514        1.9654128148        1.4813019075
 C         -4.7656045944       -0.2195511894        0.1568763027
 C         -4.5810206035       -0.8034963123       -1.0802084875
 C         -4.4555696817       -2.1813079732       -1.1566063985
 C         -4.5158721063       -2.9465082766       -0.0023333980
 C         -4.7062388782       -2.3446235320        1.2321026191
 C         -4.8248642309       -0.9670023793        1.3160988438
 H         -4.9756224174       -0.4594817765        2.2555999250
 H         -4.7578485954       -2.9433019331        2.1274764197
 H         -4.4141112304       -4.0185610553       -0.0642619493
 H         -4.3069964242       -2.6515626648       -2.1153714601
 H         -4.5442623481       -0.1748874902       -1.9545433946
 H         -2.9594602691        1.8630917329        1.4969744296
 H         -3.0595873724        2.3618234513       -2.0665526924
 H         -1.4435695028        1.2752744030       -3.6112076512
 H          0.2151252307       -0.3247281061       -2.7291917234
 H          0.8064556412       -1.8458666023       -1.0051313239
 C          0.1473843126       -1.8959381935        1.0292624825
 C         -0.9607878244       -2.8973743731        0.9037400359
 C          0.4461112184       -3.3602845893        1.1309638195
 H          0.7074849193       -3.7653511469        2.0971108402
 H          0.9727566960       -3.8213726819        0.3084829004
 H         -1.6706255430       -2.9854385911        1.7115928787
 H         -1.3924807370       -3.0378629280       -0.0754787255
 H          0.2060915068       -1.3153681906        1.9417643642
