  62
        -98.93949840
 C         -1.7976798931       -1.5683732620        0.1128983435
 C         -1.6712166097       -0.4389057386       -0.7278340154
 C         -2.8565805171        0.4305995536       -0.8400408804
 C         -3.9391067073        0.1775721809       -0.0815023437
 C         -5.2771634098        0.8804966010       -0.0088509914
 C         -5.4293739938        2.3194144808       -0.4982063960
 C         -4.6048676486        3.3540871659        0.2638561543
 H         -4.8045199240        4.3321683351       -0.1800496451
 H         -4.9458049083        3.3836907475        1.3015889391
 C         -3.0958778959        3.1166941867        0.2692420665
 H         -2.6252700694        3.9826613006        0.7426823114
 H         -2.8610783206        2.2450381141        0.8839777176
 C         -2.4681467542        2.9350173696       -1.1124794729
 H         -1.3848410307        3.0210258643       -1.0023182793
 H         -2.7970384182        3.7396231574       -1.7726745946
 C         -2.7532267138        1.5835424172       -1.7972274291
 H         -3.6495798589        1.6314278707       -2.4132107270
 H         -1.9130383702        1.3578522879       -2.4603902367
 H         -5.2157374180        2.3843269806       -1.5611537927
 H         -6.4841493047        2.5775401954       -0.3695525566
 H         -5.9811752751        0.2515086556       -0.5651555413
 H         -5.5785773534        0.8267525400        1.0417999988
 O         -3.9860967652       -0.8853802205        0.7731978518
 C         -2.9468657786       -1.7918455197        0.8713644324
 O         -3.1577775287       -2.7319267383        1.6635576255
 H          1.8653352821       -1.9661532387       -0.7377108950
 C          1.7213204526       -1.7206784593        0.3008580107
 C          0.5093217148       -1.9565239482        0.9301012902
 C          0.3692082212       -1.5961381275        2.2692121043
 C          1.4164735827       -1.0222912606        2.9623394196
 C          2.6236610774       -0.7810822489        2.3282951066
 C          2.7708942106       -1.1276703036        0.9919414593
 N          3.9835519497       -0.8852511031        0.3124453151
 S          3.9274152288        0.1983748383       -0.9698225888
 O          3.1553587960       -0.3571372138       -2.0479230997
 O          5.3140258368        0.4928410521       -1.2646274598
 C          3.1500099684        1.6327953053       -0.2487157344
 C          1.7758659779        1.6782855271       -0.1229305364
 C          1.2116170728        2.7334939360        0.5784810790
 C          2.0164595979        3.7204037043        1.1252428645
 C          3.3940345514        3.6653647447        0.9760821685
 C          3.9681349389        2.6052744174        0.2944857908
 H          5.0343255425        2.5147283991        0.1614633033
 H          4.0191170227        4.4367225094        1.3963230475
 H          1.5657140192        4.5354242996        1.6694098752
 H          0.1401336180        2.7687550973        0.6997915349
 H          1.1647780235        0.9099069142       -0.5721349638
 H          4.7376761375       -0.6144523920        0.9296024919
 H          3.4448381006       -0.3291328572        2.8640917270
 H          1.2930405301       -0.7556406097        4.0008877728
 H         -0.5783493908       -1.7805320176        2.7572881832
 C         -0.6734339099       -2.5844953662        0.2336359806
 H         -1.0612211058       -3.3772240184        0.8895335126
 C         -0.3417624661       -3.1911350968       -1.1126478956
 C          0.3397650823       -4.5236893852       -1.1740970482
 C         -1.0995389675       -4.3985205171       -1.5726971737
 H         -1.3553859407       -4.4787938127       -2.6186222030
 H         -1.8513037548       -4.7987453495       -0.9076097401
 H          1.0755406859       -4.6904550754       -1.9462344043
 H          0.5654958005       -5.0123416261       -0.2382087742
 H         -0.0820277640       -2.4536551689       -1.8629605963
 O         -0.6264529209       -0.1650277973       -1.3744327236
