  62
        -98.94408503
 C         -1.8167867492       -1.1358786201       -0.0738671794
 C         -2.2541807692       -0.0120054500       -0.8151535593
 C         -3.7114928292        0.1524386500       -0.9252401793
 C         -4.5242949492       -0.7488124501       -0.3443802093
 C         -6.0227758492       -0.6676012601       -0.3286574993
 C         -6.5247740292        0.0908189399        0.9082211907
 C         -5.8187541292        1.4261625799        1.1438757108
 H         -6.2742213492        1.8838181598        2.0247169508
 H         -4.7698945092        1.2385813299        1.3850469908
 C         -5.8974679192        2.4030902699       -0.0375533192
 H         -6.1446912092        3.3958800599        0.3442404509
 H         -6.7016828592        2.1059616599       -0.7116434492
 C         -4.5975582493        2.5427561300       -0.8320735892
 H         -3.7689868592        2.7496094299       -0.1496400392
 H         -4.6957415193        3.4051807900       -1.4969769391
 C         -4.2148294993        1.3374730100       -1.7001186792
 H         -5.0593408793        1.0557378100       -2.3324855392
 H         -3.3876121893        1.6443763500       -2.3472067492
 H         -7.5975134392        0.2591715999        0.7976207708
 H         -6.3682199492       -0.5386339602        1.7872060107
 H         -6.3638527192       -0.1717075400       -1.2352953993
 H         -6.4222433692       -1.6828941201       -0.3082133193
 O         -4.0654854692       -1.8230730601        0.3471806406
 C         -2.7067530092       -2.0383874101        0.5087573506
 O         -2.4216671492       -3.0489152901        1.1823833105
 H          1.7600265708        0.2381801900       -0.7236723194
 C          1.3573219908        0.5065690600        0.2382506706
 C          0.3041956408       -0.2057955801        0.7883273806
 C         -0.2020139792        0.1938998699        2.0237087406
 C          0.3203481208        1.2895456898        2.6812177407
 C          1.3659681708        2.0059906099        2.1250397907
 C          1.8804082008        1.6141212899        0.8950994007
 N          2.9287999208        2.3327647000        0.3119287907
 S          4.0054310108        1.6534424600       -0.7555031494
 O          5.1426403308        2.5495956700       -0.7249422593
 O          3.4007890807        1.4581091201       -2.0492787594
 C          4.4738971108        0.0748600700       -0.0652705494
 C          4.6548109008       -0.9915590600       -0.9219959895
 C          5.0510269308       -2.2140128000       -0.4035029996
 C          5.2582348308       -2.3486956800        0.9601148004
 C          5.0767392608       -1.2672994801        1.8084061805
 C          4.6851561908       -0.0416609801        1.2942037205
 H          4.5419472808        0.8128663499        1.9347753306
 H          5.2387504708       -1.3749034801        2.8688143405
 H          5.5625592708       -3.3015684001        1.3635401904
 H          5.1930035908       -3.0551053500       -1.0630772796
 H          4.4758177208       -0.8426084299       -1.9748674295
 H          3.3345157608        3.0647181899        0.8739601407
 H          1.7711377808        2.8688379399        2.6311564607
 H         -0.0869487092        1.5900503198        3.6348227107
 H         -1.0217290392       -0.3658071402        2.4540556206
 C         -0.3306615692       -1.3940384300        0.1097480706
 H         -0.2553779692       -2.2553236801        0.7891731105
 C          0.3049693208       -1.7638074500       -1.2128517395
 C          1.5376450608       -2.6143783500       -1.2404031095
 C          0.2229695508       -3.1858697300       -1.6771727195
 H          0.0650602608       -3.3770796599       -2.7280194195
 H         -0.2736728892       -3.8904828800       -1.0259114895
 H          1.9449091508       -2.9362314500       -0.2939350595
 H          2.2823329208       -2.4110654699       -1.9944206995
 H          0.2024418408       -0.9868827900       -1.9621637594
 O         -1.4738298992        0.8131807700       -1.3581947893
