  62
        -98.94368592
 C          1.5741026006        1.4248885786        0.0809239623
 C          1.9970567792        0.4615654258        1.0287247693
 C          3.0829069895       -0.4251971996        0.5969303320
 C          3.6260876879       -0.2701609260       -0.6242690913
 C          4.7546701271       -1.0839568731       -1.1976284335
 C          4.3074250048       -2.4026929869       -1.8436988380
 C          3.8550454352       -3.4874071328       -0.8648851980
 H          3.7745613610       -4.4171357946       -1.4316956768
 H          4.6245568952       -3.6346502245       -0.1065789483
 C          2.5071549459       -3.2043382751       -0.1861176687
 H          1.9784738736       -2.4266354851       -0.7432832582
 H          1.8850313748       -4.1016960148       -0.2229090078
 C          2.6115577246       -2.7808421373        1.2793947334
 H          3.0118100753       -3.6069607532        1.8708311438
 H          1.6050237221       -2.5581167886        1.6426068355
 C          3.4825131950       -1.5398435226        1.5156218484
 H          3.3239647650       -1.1995495073        2.5415581777
 H          4.5357852417       -1.7863273262        1.3860402160
 H          3.5012698921       -2.1898312646       -2.5501261967
 H          5.1543688484       -2.7894819632       -2.4151313665
 H          5.2241193393       -0.4669190209       -1.9668272239
 H          5.4907863730       -1.2894623394       -0.4200417784
 O          3.2053390014        0.6827409446       -1.4985516424
 C          2.1442472769        1.5247803259       -1.1877518003
 O          1.8180866338        2.2982941150       -2.1077749018
 O          1.4854735916        0.3442237641        2.1728813518
 C          0.4148692954        2.3311778001        0.4433503626
 C         -0.7926213793        2.0344297421       -0.4125671932
 C         -1.7001738790        3.0120748939       -0.8023633488
 C         -2.8305901378        2.6782938757       -1.5294713953
 C         -3.0867712951        1.3648986840       -1.8804964888
 C         -2.1837554347        0.3826386343       -1.5012587525
 C         -1.0545263383        0.7182532186       -0.7713869763
 H         -0.3640379456       -0.0601077192       -0.4687211404
 N         -2.4652072931       -0.9725571100       -1.8146923450
 S         -3.5506352468       -1.6711367191       -0.7399033894
 O         -3.5664549737       -3.0832437954       -1.0465027602
 O         -4.8060751758       -0.9746016601       -0.8489769378
 C         -2.8212822061       -1.3905852274        0.8626056438
 C         -3.0400347816       -0.1817171819        1.4926898052
 C         -2.3717141706        0.0846297663        2.6768552915
 C         -1.5009573500       -0.8541664568        3.2073628236
 C         -1.2999257364       -2.0667958099        2.5667236281
 C         -1.9565043250       -2.3359942835        1.3769646892
 H         -1.8207850054       -3.2632835600        0.8425811329
 H         -0.6243171530       -2.7954977902        2.9861098291
 H         -0.9666184411       -0.6365622429        4.1181444490
 H         -2.5236987388        1.0280057120        3.1762873399
 H         -3.7241955144        0.5237477375        1.0493078267
 H         -1.6339343225       -1.5474831583       -1.8392268154
 H         -3.9724151703        1.0826348671       -2.4255725351
 H         -3.5237252661        3.4516266289       -1.8232597553
 H         -1.5228915788        4.0402831266       -0.5323253064
 H          0.1545476065        2.0603138608        1.4789097479
 C          0.8317422441        3.7868276672        0.4124599387
 C          0.2340586693        4.7689066588        1.3742807068
 C          1.6543317730        4.3237803310        1.5443732405
 H          2.4477121429        5.0207882870        1.3201999700
 H          1.8853857626        3.6461115443        2.3533016056
 H          0.0526613709        5.7775285016        1.0344845374
 H         -0.4970055221        4.4010211818        2.0780923337
 H          1.0739985683        4.1290736283       -0.5871616285
