  62
        -98.93378992
 C          1.5245799420        0.3904136456        0.4268221062
 C          2.6870141155        1.0152548973       -0.0848243412
 C          3.7676397318        0.1109032143       -0.5106897027
 C          3.5949509403       -1.2207005602       -0.4500185602
 C          4.5679664002       -2.2787907383       -0.8987472433
 C          5.8899246778       -2.3659720015       -0.1116453787
 C          7.0467311324       -1.5689925887       -0.7272322412
 H          7.9640738474       -2.1541851355       -0.6354695058
 H          6.8597174660       -1.4461561330       -1.7947470004
 C          7.3253072768       -0.2011418298       -0.0966428830
 H          7.8658003067       -0.3444488723        0.8418985575
 H          7.9822357190        0.3509494767       -0.7723540489
 C          6.0966768092        0.6557126410        0.2093455227
 H          5.5917746394        0.2693916388        1.0979999922
 H          6.4373820673        1.6618217730        0.4620849963
 C          5.0659547658        0.7348953988       -0.9335869803
 H          4.8492391971        1.7789089555       -1.1680799503
 H          5.4489416806        0.2534636443       -1.8320472168
 H          5.7202858809       -2.0572473536        0.9195385827
 H          6.1762379633       -3.4187189193       -0.0906809953
 H          4.0323095677       -3.2251381237       -0.8008884379
 H          4.7869846993       -2.1272354345       -1.9581362705
 O          2.4436433859       -1.7831901787        0.0092240405
 C          1.3988428851       -1.0022318280        0.4688523824
 O          0.4207420685       -1.6537498807        0.8859786693
 O          2.8413090969        2.2601536333       -0.1963413270
 C          0.3193937389        1.1612075447        0.9418727078
 C         -0.5667237364        1.5919249908       -0.2023217767
 C         -0.1715261851        2.5716689354       -1.1069266900
 C         -1.0128835213        2.9458116739       -2.1383748342
 C         -2.2622850139        2.3671648307       -2.2780123942
 C         -2.6627793271        1.3808738438       -1.3839807776
 C         -1.8083431179        0.9939613938       -0.3613857399
 H         -2.1146587736        0.2176370595        0.3225435716
 N         -3.9105651384        0.7592246553       -1.5155852914
 S         -4.7608159766        0.2223016421       -0.1810676216
 O         -6.1271779812        0.1221812062       -0.6482866147
 O         -4.5451077786        1.0710363531        0.9673832380
 C         -4.1315177285       -1.4144478596        0.1196820313
 C         -3.6665218703       -1.7535553735        1.3740254223
 C         -3.1923588044       -3.0373496398        1.5897387320
 C         -3.1946159384       -3.9556270357        0.5520341821
 C         -3.6702254054       -3.6013906357       -0.7014101550
 C         -4.1447473899       -2.3191777807       -0.9230602058
 H         -4.5244937874       -2.0077661658       -1.8819557030
 H         -3.6689224411       -4.3199881082       -1.5052881245
 H         -2.8200835048       -4.9526615729        0.7222922720
 H         -2.8164132868       -3.3127152620        2.5619502377
 H         -3.6766623956       -1.0075092941        2.1535920227
 H         -4.5124256957        1.1424344899       -2.2291542981
 H         -2.9222797256        2.6713508347       -3.0762700259
 H         -0.6969606456        3.7056567969       -2.8373272313
 H          0.8037630537        3.0210565865       -1.0028254003
 H         -0.2530922300        0.4436981738        1.5455732640
 C          0.6824736722        2.3392953607        1.8244823707
 C         -0.3817164511        2.9340061207        2.6953396980
 C          0.7400503743        2.1519967088        3.3090812843
 H          1.4955930490        2.6850207885        3.8666431491
 H          0.5222019575        1.1682511542        3.6994527945
 H         -0.3969383411        4.0044924444        2.8319811654
 H         -1.3633538788        2.4834649933        2.6641457467
 H          1.4041207925        3.0105125793        1.3790422093
