  62
        -98.93720869
 C         -1.4205920872       -1.4870394921       -0.3161502000
 C         -1.5739765625       -0.1353277050       -0.7073844087
 C         -2.7108086679        0.5964706549       -0.1117207458
 C         -3.5078877228       -0.0152460206        0.7816627142
 C         -4.6863745526        0.4971669024        1.5835675684
 C         -5.4003895139        1.7877031047        1.1889194460
 C         -6.1335330884        1.7322211036       -0.1503758290
 H         -6.9775125725        1.0440963901       -0.0575489521
 H         -6.5354799835        2.7262880372       -0.3584702106
 C         -5.2937941122        1.2769408350       -1.3411569148
 H         -5.9301903629        1.3080661353       -2.2296890584
 H         -4.9900265833        0.2377845429       -1.1990425135
 C         -4.0533857727        2.1217711962       -1.6272625331
 H         -4.3362481973        3.1725753427       -1.7137146316
 H         -3.6548917079        1.8017817878       -2.5935896374
 C         -2.9154755030        2.0023935155       -0.5970285001
 H         -1.9820914653        2.2985513554       -1.0846956723
 H         -3.0630474107        2.6761250732        0.2442305252
 H         -4.7058559566        2.6226539649        1.2071532936
 H         -6.1455500435        1.9791781114        1.9660867024
 H         -4.3205973204        0.6057720179        2.6110315039
 H         -5.4118636469       -0.3225716911        1.5992922931
 O         -3.2988801524       -1.3119038264        1.1576847688
 C         -2.2714467205       -2.0675709162        0.6255482907
 O         -2.2232348841       -3.2382509885        1.0566856929
 O         -0.8145305028        0.4585913869       -1.5142128696
 C         -0.3116866175       -2.3945213618       -0.8224901693
 C          0.8875244048       -2.3430771271        0.0925519986
 C          1.6079477210       -3.4947094991        0.3891181628
 C          2.7065065152       -3.4378189819        1.2282552738
 C          3.1012154185       -2.2385331829        1.7921399524
 C          2.3760568670       -1.0826392024        1.5175657847
 C          1.2860597911       -1.1421717928        0.6611202286
 H          0.7240216434       -0.2449419369        0.4642242156
 N          2.7231290893        0.1251091510        2.1266399554
 S          2.2938730481        1.6381997646        1.5755473635
 O          3.0086407433        2.5309354378        2.4642447535
 O          0.8608027959        1.7831591550        1.5526712863
 C          3.0026093537        1.7697875284       -0.0554737183
 C          4.3717102391        1.9539006435       -0.1238204657
 C          4.9783966226        2.0516626163       -1.3640382038
 C          4.2076191424        1.9685597692       -2.5145445905
 C          2.8370362400        1.7880220480       -2.4281680191
 C          2.2216762768        1.6823562771       -1.1888138273
 H          1.1570873966        1.5251840959       -1.1083753910
 H          2.2316372977        1.7241939170       -3.3179712446
 H          4.6767574785        2.0467257430       -3.4826405482
 H          6.0448742469        2.1945385828       -1.4311159150
 H          4.9298089772        2.0364561968        0.7945573218
 H          3.5815851297        0.1263272836        2.6545177438
 H          3.9501199127       -2.1961383760        2.4569417420
 H          3.2582543984       -4.3381596103        1.4518747174
 H          1.2886292629       -4.4407988977       -0.0225305512
 H         -0.7219272838       -3.4159415436       -0.7600983052
 C          0.0532976606       -2.1406895995       -2.2789804479
 C          1.3289520056       -1.4829189274       -2.7006970598
 C          1.1293936549       -2.9465145639       -2.9449729425
 H          0.9642170829       -3.2852517768       -3.9565278600
 H          1.6914804834       -3.6354895021       -2.3339417177
 H          1.2868156552       -0.8039694872       -3.5376622450
 H          2.0219229213       -1.1798245866       -1.9308937791
 H         -0.8234419302       -1.9161248896       -2.8774038289
