  62
        -98.93813262
 C         -1.8289335604       -0.0270625098        0.0111068901
 C         -2.8404442404       -0.8197182106        0.6014343991
 C         -4.1739714504       -0.2056195507        0.7081608198
 C         -4.3592100404        1.0478408598        0.2595539414
 C         -5.6142417804        1.8833775798        0.3056741824
 C         -6.9380584804        1.1956567502       -0.0559584285
 C         -6.8272428504        0.0871340815       -1.1128768499
 H         -7.5659375103        0.2687138325       -1.8958024797
 H         -5.8424581003        0.1144807121       -1.5824978798
 C         -7.0823898603       -1.3099436592       -0.5419765716
 H         -7.3535265003       -1.9799032282       -1.3614958424
 H         -7.9376521604       -1.2602622601        0.1354860484
 C         -5.9007970804       -1.9451746101        0.1897499576
 H         -5.1197794703       -2.2095051292       -0.5282473727
 H         -6.2476097004       -2.8769549607        0.6429311765
 C         -5.2542313104       -1.0771650914        1.2815486087
 H         -6.0007822704       -0.4951391421        1.8162446394
 H         -4.7581481204       -1.7450209923        1.9910100579
 H         -7.3922243304        0.7830561691        0.8438270110
 H         -7.6100089204        1.9763065206       -0.4165473575
 H         -5.6978229804        2.3155636885        1.3071056629
 H         -5.4297761604        2.7092113806       -0.3855949966
 O         -3.3525155504        1.7781871405       -0.2998026677
 C         -2.0717415204        1.2678033807       -0.4435460283
 O         -1.2637105404        2.0511861314       -0.9774808473
 H          1.9602188596        0.4665327715       -1.0506339492
 C          1.7286686296        0.7257387303       -0.0314216988
 C          0.5676024596        0.2703204795        0.5719655606
 C          0.3130010396        0.6397733879        1.8914520110
 C          1.1805934495        1.4670329070        2.5753359621
 C          2.3314730895        1.9338408478        1.9636749627
 C          2.6025258896        1.5612707094        0.6539345822
 N          3.7609727296        2.0197246302        0.0080453228
 S          4.6430353296        0.9684651114       -0.9427058385
 O          5.9743572796        1.5355308315       -0.9703782877
 O          4.0111975097        0.7879880330       -2.2247661487
 C          4.6518107096       -0.5691378797       -0.0370228204
 C          5.1691254696       -0.5713510613        1.2438071296
 C          5.1600837496       -1.7516627722        1.9683441982
 C          4.6378717296       -2.9052392615        1.4029676267
 C          4.1292267897       -2.8882246999        0.1139871968
 C          4.1338657197       -1.7091293990       -0.6145429618
 H          3.7442620297       -1.6511390777       -1.6175465417
 H          3.7275044097       -3.7869560593       -0.3265062144
 H          4.6288050896       -3.8232074522        1.9692237356
 H          5.5579647796       -1.7693092934        2.9701408782
 H          5.5781954896        0.3388979882        1.6508663808
 H          4.3598416496        2.6008250396        0.5757436736
 H          3.0064499095        2.5903612272        2.4912883035
 H          0.9625273695        1.7516697658        3.5935738124
 H         -0.5876518604        0.2776438373        2.3681750705
 C         -0.4334671204       -0.6064636596       -0.1368643105
 H         -0.4659716704       -1.5788292703        0.3770659382
 C         -0.1200906703       -0.8392091278       -1.5993753508
 C          0.7987315897       -1.9484929773       -2.0110611422
 C         -0.6727508703       -2.0594748570       -2.2711433024
 H         -1.0284293503       -1.9732214357       -3.2870321323
 H         -1.2496224403       -2.7403845777       -1.6623447032
 H          1.2198004297       -2.5607508083       -1.2283526929
 H          1.4567293997       -1.7821797962       -2.8512214520
 H         -0.1016434203        0.0804071229       -2.1745167897
 O         -2.6354123904       -1.9848268811        1.0353479177
