  62
        -98.94124384
 C         -1.8286685102       -0.9290360194        0.7047156493
 C         -2.0885422604        0.4608181906        0.8468478091
 C         -3.4798920504        0.8875655005        0.6709699988
 C         -4.4288195802       -0.0310633396        0.4162751787
 C         -5.9008827102        0.2340916502        0.2531330684
 C         -6.3050843300        0.6755437101       -1.1599990117
 C         -5.8892668800        2.0971709401       -1.5398436617
 H         -6.4196119299        2.3508762500       -2.4598968419
 H         -6.2256528602        2.7909022801       -0.7686996818
 C         -4.3823493200        2.2739756502       -1.7735576915
 H         -4.2209165899        2.8420159301       -2.6925197815
 H         -3.9185909399        1.2953306102       -1.9179805213
 C         -3.6473220403        3.0085430403       -0.6522058914
 H         -2.5846563202        3.0425849404       -0.9053737112
 H         -4.0121908904        4.0360058603       -0.5872670915
 C         -3.7841157405        2.3540699004        0.7287911387
 H         -3.0585739707        2.8173420305        1.4016012688
 H         -4.7856819006        2.5189503704        1.1256931284
 H         -7.3936952400        0.6086366900       -1.2231352019
 H         -5.8865805598       -0.0314883299       -1.8800532516
 H         -6.4120912302       -0.7039842198        0.4800768384
 H         -6.2189671004        0.9865735003        0.9753592283
 O         -4.1452613401       -1.3530787996        0.2967972789
 C         -2.8470787401       -1.8345402695        0.4061453591
 O         -2.7647278400       -3.0653903895        0.2208796493
 H          1.8999816498       -0.1449057492        0.1810802799
 C          1.5460822300       -0.8077268992       -0.5934397101
 C          0.3568410600       -1.4986411593       -0.4141693903
 C         -0.0948009497       -2.3317230394       -1.4318093903
 C          0.6339919105       -2.4627898295       -2.5997719001
 C          1.8334736705       -1.7919408894       -2.7642823900
 C          2.2960961402       -0.9616743393       -1.7507002199
 N          3.5057603102       -0.2656303992       -1.8798087698
 S          4.5157839599       -0.1021928490       -0.5535851196
 O          5.8248251000        0.1334493511       -1.1239559193
 O          4.4044756099       -1.2299318889        0.3411570505
 C          3.9608459297        1.3854487810        0.2498461402
 C          3.6813123594        1.3698674511        1.6017226802
 C          3.2679278092        2.5417377311        2.2150549000
 C          3.1437252293        3.7032433810        1.4690006399
 C          3.4324750495        3.7035092110        0.1126737399
 C          3.8466131497        2.5352043709       -0.5059541099
 H          4.0820999099        2.4966631009       -1.5564406199
 H          3.3334967496        4.6096960809       -0.4630319602
 H          2.8180381491        4.6127639611        1.9486055497
 H          3.0405424790        2.5426283112        3.2691284899
 H          3.7853448594        0.4428505711        2.1441619202
 H          4.0220734804       -0.4602336792       -2.7252774296
 H          2.4083702507       -1.9104099894       -3.6703196998
 H          0.2718074307       -3.1078267595       -3.3863198002
 H         -1.0171536497       -2.8754672695       -1.2962420904
 C         -0.3864830102       -1.3616457993        0.8933244796
 H          0.0860327996       -0.5400767092        1.4494007496
 C         -0.2222821803       -2.6375091192        1.6993587097
 C          1.1346801096       -2.9809827491        2.2350340500
 C          0.0454073994       -2.5513358391        3.1704486798
 H         -0.3987781806       -3.2914329991        3.8191230897
 H          0.1094147793       -1.5668113690        3.6103989497
 H          1.9462673596       -2.2974473890        2.0312950201
 H          1.4355771097       -4.0176548190        2.2393178301
 H         -0.8439726701       -3.4504675493        1.3476896796
 O         -1.1943373805        1.3045547407        1.1217126992
