  62
        -98.94125031
 C         -1.8643685871       -0.5974250498        0.0136837217
 C         -2.5800189876       -0.0868284452        1.1264203992
 C         -3.6744716108        0.8447106543        0.8245418243
 C         -3.8896715517        1.2111830674       -0.4517786801
 C         -5.0047462465        2.1041799061       -0.9110078599
 C         -6.2514451788        1.2877837973       -1.2801951183
 C         -6.6592082781        0.2665780564       -0.2180499560
 H         -7.5657994299       -0.2276451943       -0.5737346395
 H         -5.8843763377       -0.5000606855       -0.1444545667
 C         -6.9145540441        0.8639568566        1.1728692380
 H         -7.0688188789        1.9404962115        1.0907791889
 H         -7.8346229758        0.4345324211        1.5748239315
 C         -5.8104373473        0.5872624007        2.1950111944
 H         -5.5897142094       -0.4830988658        2.2150386711
 H         -6.1862845634        0.8616101469        3.1842738661
 C         -4.4957814101        1.3471916235        1.9783530402
 H         -4.7010597451        2.4142572749        1.8700787453
 H         -3.8783101098        1.2046956962        2.8702247487
 H         -7.0766419123        1.9797949102       -1.4578407035
 H         -6.0509314411        0.7521739974       -2.2110652409
 H         -5.2433801424        2.8149849256       -0.1220433396
 H         -4.6660054437        2.6528418627       -1.7915364205
 O         -3.1297181076        0.7681646585       -1.4840051584
 C         -2.1038437815       -0.1501656799       -1.2869670598
 O         -1.5023628604       -0.4617985670       -2.3302630826
 H          0.5349326708        0.6956589627        0.5842968472
 C          1.0432609396        0.0609696193       -0.1317147755
 C          0.5079498591       -1.1883360740       -0.4246563276
 C          1.1691091261       -1.9924602807       -1.3424774167
 C          2.3207601051       -1.5430525851       -1.9658912562
 C          2.8397686634       -0.2933292419       -1.6857341840
 C          2.1913891320        0.5159055603       -0.7604612634
 N          2.7146851810        1.7850303147       -0.4617425873
 S          4.3655857267        1.9279170401       -0.2346127550
 O          4.5284486404        3.0713461228        0.6359793665
 O          5.0287023224        2.0116111327       -1.5120139805
 C          4.8532488211        0.4293425915        0.6022950171
 C          4.2933312814        0.1638293411        1.8363969427
 C          4.6303661886       -1.0119442622        2.4865600718
 C          5.5171399026       -1.8982570765        1.8941074731
 C          6.0753059285       -1.6145441475        0.6576055515
 C          5.7403017505       -0.4405073127        0.0019232634
 H          6.1487622049       -0.1817656078       -0.9613078936
 H          6.7662252838       -2.3044268228        0.2006202227
 H          5.7744571835       -2.8145142270        2.4015604924
 H          4.1976642238       -1.2335214019        3.4490041008
 H          3.6114294302        0.8763025620        2.2726779845
 H          2.1985951058        2.2904124280        0.2425365035
 H          3.7228074900        0.0775656564       -2.1802004655
 H          2.8174117287       -2.1734374729       -2.6874918373
 H          0.7686965114       -2.9607202930       -1.5925319996
 C         -0.7544672141       -1.5950428813        0.2927711520
 H         -0.5707758637       -1.4951462715        1.3760046472
 C         -1.1463851395       -3.0461159840        0.0573574179
 C         -2.5744426135       -3.4869484889        0.1699801032
 C         -1.8921854593       -3.4914247988       -1.1634508503
 H         -1.6342972473       -4.4446409854       -1.6015358541
 H         -2.1637837924       -2.7388252213       -1.8866553380
 H         -2.7848408044       -4.4325518492        0.6467541172
 H         -3.3194234893       -2.7276793568        0.3600574117
 H         -0.4028928477       -3.7332897107        0.4491185662
 O         -2.3106918384       -0.3933204184        2.3190513608
