  62
        -98.93292648
 C         -2.6441188387        1.2546877425       -0.2862318248
 C         -2.5151864805        0.1737011038        0.6196557392
 C         -3.6900449154       -0.7099999097        0.7496065066
 C         -4.7952901425       -0.4611030160        0.0286416036
 C         -6.1086699626       -1.2021884656        0.0374775133
 C         -6.0537911395       -2.7367563743        0.0343651041
 C         -4.8553799160       -3.3444097212       -0.7093524202
 H         -5.2189020423       -4.1017977958       -1.4064316315
 H         -4.3501337228       -2.5766975203       -1.2980470823
 C         -3.8476574533       -4.0150321933        0.2277044411
 H         -3.2472376988       -4.7213031958       -0.3506776550
 H         -4.3965788139       -4.5899545275        0.9768446500
 C         -2.8765996754       -3.0704804580        0.9353286866
 H         -2.3024875199       -3.6572400445        1.6563338364
 H         -2.1621536131       -2.6626228195        0.2148360770
 C         -3.5236975271       -1.8849668731        1.6696510449
 H         -4.4658477416       -2.1721215309        2.1302951213
 H         -2.8350105077       -1.5608251145        2.4545608352
 H         -6.9808697425       -3.0840362416       -0.4248803515
 H         -6.0562783230       -3.1033462633        1.0600020526
 H         -6.6837109319       -0.8664573926        0.9053470487
 H         -6.6368876730       -0.8528542939       -0.8529284152
 O         -4.8726566748        0.5872519003       -0.8398728155
 C         -3.8075448515        1.4481989965       -1.0341975062
 O         -4.0152082871        2.3315529221       -1.8903508696
 H          0.7401825984        2.0935383333        1.0469065291
 C          0.8305394363        1.5043966593        0.1475329223
 C         -0.2198788271        1.4589565823       -0.7541447316
 C         -0.0862532722        0.6679869143       -1.8919749860
 C          1.0653544231       -0.0620309098       -2.1143203125
 C          2.1080304674       -0.0229308401       -1.2050785470
 C          1.9855608941        0.7624640159       -0.0675862207
 N          3.0264846914        0.7861314932        0.8725488862
 S          4.6090211126        0.9499165895        0.3551979814
 O          5.3233219687        1.4892513765        1.4920444846
 O          4.6908505614        1.7101594430       -0.8707903363
 C          5.1493554887       -0.7232768937        0.0730381989
 C          5.7471198558       -1.0602759834       -1.1254916877
 C          6.1729695354       -2.3652825480       -1.3187961336
 C          5.9954100354       -3.3048269296       -0.3149547682
 C          5.3954090926       -2.9496725509        0.8840605757
 C          4.9690080471       -1.6465680094        1.0841508078
 H          4.4996087167       -1.3320123844        2.0013359907
 H          5.2578538870       -3.6832616832        1.6620990416
 H          6.3261145765       -4.3200373678       -0.4676815706
 H          6.6396588732       -2.6433668429       -2.2501333659
 H          5.8583554735       -0.2982552923       -1.8804823993
 H          2.8361672126        1.3464483992        1.6897878211
 H          3.0073786282       -0.5937975116       -1.3691077650
 H          1.1522602900       -0.6719058243       -3.0009361434
 H         -0.9051341448        0.6292075426       -2.5982578653
 C         -1.5043335946        2.2241116931       -0.5523096595
 H         -1.7612395853        2.7046155588       -1.5108035442
 C         -1.3823502304        3.3452606989        0.4688587828
 C         -2.6034785330        3.9252765100        1.1162294514
 C         -1.6233085265        3.1409988495        1.9332187784
 H         -0.9986295294        3.6774570418        2.6331788527
 H         -1.8998398587        2.1526842436        2.2639104430
 H         -2.6529471359        4.9948824600        1.2543957065
 H         -3.5550515462        3.4710317884        0.8807951325
 H         -0.6019206432        4.0506832599        0.1974641808
 O         -1.4856439275       -0.0533645161        1.3041115091
