  62
        -98.93584926
 C         -2.3191897967       -0.0275467497       -0.2978391239
 C         -3.3549085623        0.7883034430        0.2224970617
 C         -4.5883665415        0.0832195251        0.6132399655
 C         -4.6547911658       -1.2548786512        0.5035094558
 C         -5.8608866619       -2.0868896740        0.8282850147
 C         -6.7511230435       -2.2815321437       -0.4069574537
 C         -7.0646281807       -0.9840291212       -1.1520180083
 H         -6.1415520441       -0.5892802154       -1.5829425561
 H         -7.7242254931       -1.2383535902       -1.9845800163
 C         -7.7248472607        0.1002107966       -0.2888601618
 H         -8.5546556298        0.5359609885       -0.8493106025
 H         -8.1430890524       -0.3482408941        0.6129348115
 C         -6.7976979186        1.2528003144        0.1016374485
 H         -7.4118237935        2.0572389288        0.5150043491
 H         -6.3042181837        1.6444930844       -0.7914491357
 C         -5.7196792809        0.9206857299        1.1409984902
 H         -5.2681232018        1.8633536208        1.4635703112
 H         -6.1795580436        0.4444788232        2.0091257820
 H         -6.2419730463       -2.9581069868       -1.0973197282
 H         -7.6818701499       -2.7558778819       -0.0906365974
 H         -5.5198810673       -3.0630054064        1.1772492455
 H         -6.4252778899       -1.6039443004        1.6235314576
 O         -3.6273609541       -2.0084608504        0.0328859764
 C         -2.4499373713       -1.4161493484       -0.3875352674
 O         -1.6010219885       -2.2223175219       -0.8211730008
 H          1.5516101041       -0.3954189971       -0.7497171901
 C          1.2854290882        0.0894708939        0.1780523391
 C          0.0098408045        0.6047295772        0.3507877248
 C         -0.3143500205        1.1994226563        1.5664435480
 C          0.6260143409        1.2815017265        2.5769566313
 C          1.9061636204        0.7896956248        2.3917328001
 C          2.2365553541        0.1852223115        1.1844578882
 N          3.5189731141       -0.3440042118        0.9717156861
 S          4.1691174058       -0.2459536791       -0.5841616825
 O          3.9076752496        1.0601564198       -1.1454401113
 O          3.7092208547       -1.3744320744       -1.3539549342
 C          5.9044642989       -0.4348559140       -0.2227426502
 C          6.7198722143        0.6801640472       -0.1833276708
 C          8.0615608599        0.5180004436        0.1254064059
 C          8.5608239724       -0.7480603467        0.3913874259
 C          7.7296561728       -1.8578896461        0.3477569704
 C          6.3879422244       -1.7034660127        0.0379398539
 H          5.7066273090       -2.5365208221       -0.0181834547
 H          8.1217102382       -2.8410209083        0.5525309290
 H          9.6050290605       -0.8716093382        0.6313732807
 H          8.7109557890        1.3779650946        0.1566737553
 H          6.2888612808        1.6434246339       -0.4041613378
 H          4.1848525608       -0.0634492914        1.6786859183
 H          2.6416820254        0.8650734818        3.1781865518
 H          0.3629572753        1.7461359262        3.5153673819
 H         -1.3050459737        1.6050134329        1.7045166656
 C         -0.9862782396        0.5228868147       -0.7769611270
 H         -0.6046607439       -0.2254125699       -1.4914306000
 C         -1.1122576341        1.8372816216       -1.5363253614
 C         -0.6491655380        3.1553432648       -1.0014562320
 C          0.1136298371        2.4901295113       -2.1050379266
 H          0.0610865697        2.9089095222       -3.0989448546
 H          1.0731221287        2.0535236430       -1.8640159811
 H         -1.2477267831        4.0236443190       -1.2306062089
 H         -0.2051652249        3.1807487016       -0.0191133505
 H         -2.0030707149        1.8591161061       -2.1564717766
 O         -3.2760213918        2.0345280695        0.3654654643
