  62
        -98.94467815
 C         -2.5195272559       -0.8759051221        0.3107522626
 C         -2.5139132228        0.0123411203       -0.7921461118
 C         -2.8268708229        1.4169462935       -0.4910660071
 C         -3.1110914645        1.7815645781        0.7711705256
 C         -3.3903880274        3.1848649305        1.2224649542
 C         -2.1078667218        3.8897471468        1.6846189333
 C         -0.9434992244        3.7832320523        0.6987417826
 H         -0.1170682900        4.3682428579        1.1092423810
 H         -0.5968353444        2.7479446255        0.6436609508
 C         -1.2590972421        4.2794671194       -0.7189133805
 H         -0.4184123337        4.8810830976       -1.0711636170
 H         -2.1391327641        4.9244406534       -0.7026610567
 C         -1.4619239243        3.1629316034       -1.7451129880
 H         -0.6324652321        2.4529746056       -1.6696749614
 H         -1.4230649639        3.6060858808       -2.7444724806
 C         -2.7834453933        2.3903936158       -1.6346952667
 H         -3.6170864616        3.0935795403       -1.5780401027
 H         -2.8983613579        1.7934858336       -2.5443116667
 H         -2.3396453343        4.9422506437        1.8593407890
 H         -1.7921654857        3.4482635145        2.6325880590
 H         -3.8477038027        3.7392687508        0.4053733990
 H         -4.0906399033        3.1426454581        2.0586502409
 O         -3.1407384406        0.8984072391        1.8006708265
 C         -2.8189815841       -0.4315848112        1.6032273461
 O         -2.8482804131       -1.1215364660        2.6420942579
 H         -0.3829927634       -1.3361884978       -1.5846154859
 C          0.1258754576       -1.8132217563       -0.7601756690
 C         -0.6151625351       -2.4229621999        0.2420872355
 C          0.0651328459       -3.0127906203        1.3009853542
 C          1.4480352231       -2.9784076057        1.3590678319
 C          2.1790029390       -2.3284296977        0.3792996753
 C          1.5052051741       -1.7377710962       -0.6800622798
 N          2.2348000280       -0.9712450013       -1.6302046481
 S          2.4524600042        0.6053754496       -1.0558352370
 O          1.3225042195        1.0439366226       -0.2672344986
 O          2.7798550700        1.4095978551       -2.2131500219
 C          3.8882586754        0.4311974825       -0.0201465506
 C          3.7486632814        0.4631137196        1.3530221299
 C          4.8734761245        0.2872260612        2.1441287542
 C          6.1096981389        0.0821219123        1.5505133188
 C          6.2330707851        0.0544983046        0.1691156920
 C          5.1126048308        0.2293253618       -0.6270700428
 H          5.1600251835        0.2204131384       -1.7032143181
 H          7.1963484467       -0.1041887831       -0.2881879505
 H          6.9822308116       -0.0566730322        2.1691802831
 H          4.7787633425        0.3079620527        3.2179541994
 H          2.7661680603        0.6206715693        1.7694393440
 H          1.7471091943       -0.9075631534       -2.5151064444
 H          3.2541531261       -2.2692905922        0.4307885294
 H          1.9607813626       -3.4428095587        2.1873601765
 H         -0.5010894527       -3.4756127773        2.0962247300
 C         -2.1226705749       -2.3443755378        0.2149712691
 H         -2.5035397520       -2.8184907452        1.1293140749
 C         -2.7090779321       -3.0663146147       -0.9805763882
 C         -2.8126072933       -4.5604896490       -0.9432560039
 C         -4.0504640073       -3.7205036772       -0.8535955144
 H         -4.7192510343       -3.6893780055       -1.7004907255
 H         -4.5518512421       -3.6497645197        0.1008155807
 H         -2.4768071565       -5.0629211092       -0.0488116220
 H         -2.6297729339       -5.1111903544       -1.8530694990
 H         -2.4741354797       -2.5993988059       -1.9275786088
 O         -2.2646886507       -0.3228142993       -1.9832720152
