  62
        -98.94343251
 C          1.9525668890        0.8574623200        0.0433855715
 C          2.2429840264       -0.1083855307        1.0343022397
 C          2.5319918644       -1.4630313125        0.5484435980
 C          2.4634040328       -1.7155307118       -0.7715888544
 C          2.7743980681       -3.0388174028       -1.4080313326
 C          4.2550029055       -3.1329714459       -1.8032162379
 C          5.2186038091       -2.7309300762       -0.6867318952
 H          6.2329520665       -2.8629681177       -1.0690261592
 H          5.0904642087       -1.6674876253       -0.4723707142
 C          5.0534803333       -3.5321144261        0.6121011427
 H          4.4985640619       -4.4496466624        0.4135929212
 H          6.0422660628       -3.8216932997        0.9737382633
 C          4.3716483663       -2.7652554865        1.7467177469
 H          4.8670576455       -1.8013601766        1.8880925807
 H          4.4989170893       -3.3374588880        2.6694846201
 C          2.8687526744       -2.5111109255        1.5716944178
 H          2.3580897940       -3.4492174316        1.3429649668
 H          2.4795062534       -2.1348814288        2.5227914164
 H          4.4636433424       -4.1577116926       -2.1156880892
 H          4.4265449119       -2.4742300185       -2.6574916615
 H          2.5190269809       -3.8368687853       -0.7134560482
 H          2.1582641852       -3.1399929123       -2.3030701125
 O          2.1487303434       -0.7695751132       -1.6926360350
 C          1.8839349951        0.5370099766       -1.3122424667
 O          1.6112127769        1.3022900067       -2.2571124296
 H         -0.5272495764        0.7008153570        0.3217924236
 C         -0.7582571353        1.7149991308        0.0285535861
 C          0.2451916995        2.6752587391        0.0299294053
 C         -0.0813285114        3.9746803824       -0.3383459775
 C         -1.3771532978        4.2934930359       -0.7061812552
 C         -2.3692548488        3.3315140531       -0.7172528302
 C         -2.0516137435        2.0256620983       -0.3560799456
 N         -3.0269197421        1.0173700843       -0.4138192065
 S         -2.8279708367       -0.4300693527        0.4166235876
 O         -2.5898609841       -0.1817218589        1.8222465404
 O         -1.8484017770       -1.2367178348       -0.2689932551
 C         -4.4515204534       -1.1307316941        0.1882843428
 C         -4.7554675944       -1.7047242768       -1.0318829878
 C         -6.0239920397       -2.2262123350       -1.2298014529
 C         -6.9627854394       -2.1651554407       -0.2103265868
 C         -6.6428812426       -1.5879447559        1.0092080405
 C         -5.3760256455       -1.0633048149        1.2132151767
 H         -5.0784485627       -0.6123027016        2.1461485527
 H         -7.3733914500       -1.5446417740        1.8007868914
 H         -7.9489364591       -2.5727265647       -0.3669381600
 H         -6.2749790161       -2.6777055083       -2.1760360059
 H         -3.9899344331       -1.7361805022       -1.7898915551
 H         -3.9743538204        1.3646752604       -0.3683993787
 H         -3.3769497024        3.5799864472       -1.0123280421
 H         -1.6171201328        5.3071288282       -0.9892697024
 H          0.6802151698        4.7373393041       -0.3386933533
 C          1.6340720981        2.2770147575        0.4688913769
 H          1.6489452661        2.2624163273        1.5703300807
 C          2.7083913897        3.2280526613       -0.0206333844
 C          3.1044739536        4.4200262062        0.7971269143
 C          4.0299407029        3.2472226017        0.6857217906
 H          4.9290343271        3.3486898873        0.0967337356
 H          4.1396857408        2.5978613675        1.5423686169
 H          2.5965474039        4.5732004424        1.7374227080
 H          3.3720557901        5.3310661375        0.2833410686
 H          2.7161249114        3.3189833723       -1.1011193148
 O          2.2619911922        0.1527216369        2.2697789420
