  62
        -98.94284129
 C          1.1054961416        1.3986408721        0.4015982839
 C          1.4267615158        0.5611100078       -0.6947808345
 C          2.4332564115       -0.4764846800       -0.4302628203
 C          2.9434088555       -0.6244473085        0.8044694709
 C          3.9803511449       -1.6315711037        1.2227719731
 C          5.4223255086       -1.1905021693        0.9345502229
 C          5.8306275247       -1.2230681958       -0.5389843507
 H          5.5951840306       -2.2012569345       -0.9593673902
 H          6.9158727425       -1.1078858742       -0.5724227113
 C          5.1927228445       -0.1236131225       -1.3998303930
 H          5.9573866259        0.3315320694       -2.0335348913
 H          4.8035259861        0.6660222595       -0.7527431258
 C          4.0716247936       -0.6077055977       -2.3198863661
 H          4.4789250209       -1.3001146430       -3.0599572565
 H          3.6700996761        0.2570590384       -2.8543998953
 C          2.9106466884       -1.2965375889       -1.5903402368
 H          3.2141712831       -2.2879516063       -1.2565294157
 H          2.0780701435       -1.3997742012       -2.2902008565
 H          6.0849468660       -1.8610704050        1.4865965710
 H          5.5663465808       -0.1825466670        1.3305049391
 H          3.8725910676       -1.7621683754        2.3017759189
 H          3.7910269215       -2.5864146980        0.7316447727
 O          2.5453858132        0.1437492934        1.8521140184
 C          1.6474559815        1.1802231191        1.6725516190
 O          1.4093193222        1.8327052136        2.7082339300
 H         -1.1388593608        0.8286057008       -1.2607583303
 C         -1.7771818363        1.2136090355       -0.4787206895
 C         -1.2662971318        2.1528571787        0.4077196023
 C         -2.0941375387        2.6349123663        1.4138639091
 C         -3.4006852651        2.1888189397        1.5273380806
 C         -3.9061276186        1.2526331207        0.6423603992
 C         -3.0826359054        0.7638503332       -0.3632085576
 N         -3.5751083578       -0.2283465302       -1.2464675690
 S         -3.7282934720       -1.7402292438       -0.5417772496
 O         -4.0152282971       -2.6574868587       -1.6202586434
 O         -4.7126172181       -1.6572185599        0.5066172324
 C         -2.1258382032       -2.0993383188        0.1573908803
 C         -1.2401173849       -2.8764616791       -0.5613867658
 C          0.0128636015       -3.1310869159       -0.0292885793
 C          0.3624087825       -2.5922732349        1.1990016317
 C         -0.5297171692       -1.7952085461        1.8987134001
 C         -1.7890282448       -1.5469715350        1.3772482069
 H         -2.5118115779       -0.9449109034        1.9038019798
 H         -0.2454046165       -1.3600093634        2.8443176956
 H          1.3348789908       -2.7938487040        1.6185665130
 H          0.7127954285       -3.7448966406       -0.5727210993
 H         -1.5537336811       -3.2787890250       -1.5113943443
 H         -3.0033372350       -0.3193112045       -2.0762129283
 H         -4.9120812220        0.8756588867        0.7294430789
 H         -4.0312301148        2.5717820139        2.3153292640
 H         -1.7028998957        3.3520104139        2.1208244708
 C          0.1686211897        2.5935708068        0.2932220901
 H          0.3969599141        3.2130914470        1.1740265373
 C          0.4496398131        3.4388481286       -0.9444126900
 C         -0.5499756725        3.6918277599       -2.0300035476
 C         -0.1866619290        4.7907488179       -1.0805389224
 H          0.4125552843        5.6142894695       -1.4382827728
 H         -0.9193305936        5.0679838194       -0.3373441142
 H         -1.5305094006        3.2508013846       -1.9435559461
 H         -0.1831893158        3.7384168233       -3.0443065118
 H          1.4843805773        3.3606774705       -1.2620802557
 O          0.9210086288        0.6579439709       -1.8431790258
