  62
        -98.94122915
 C         -1.6805195430       -0.2379601013        0.2293676029
 C         -2.8204724636       -0.9882122360       -0.1499398866
 C         -3.9486882389       -0.2107271289       -0.6822952354
 C         -3.8442336764        1.1217862944       -0.8267473125
 C         -4.8981008791        2.0413138630       -1.3813092540
 C         -5.9481723041        2.4806728805       -0.3516018006
 C         -6.9482329470        1.3996241772        0.0604950299
 H         -7.7497696597        1.8975024324        0.6099273552
 H         -7.3920231332        0.9573906025       -0.8320298081
 C         -6.3566947895        0.2937725952        0.9457860153
 H         -5.4081624439        0.6332444181        1.3681868155
 H         -7.0290951960        0.1001416145        1.7846525677
 C         -6.1302778859       -1.0379827612        0.2301860459
 H         -7.0907108863       -1.4548853429       -0.0811663843
 H         -5.6747550111       -1.7344767352        0.9387054791
 C         -5.2161177583       -0.9464838080       -0.9984274132
 H         -4.9453329980       -1.9610018313       -1.3008120792
 H         -5.7408663738       -0.4643434421       -1.8228400104
 H         -5.4323206140        2.8565642573        0.5349606522
 H         -6.5052688397        3.3122282365       -0.7893699592
 H         -4.3758245567        2.9303930520       -1.7410593139
 H         -5.3939142982        1.5637001349       -2.2268537160
 O         -2.7175279561        1.8032107535       -0.4894746118
 C         -1.6286859357        1.1501490216        0.0604472962
 O         -0.6804705858        1.9048179973        0.3560642224
 H          2.0826784525       -0.1019146365        0.2485727589
 C          1.7628431551       -0.9285481521       -0.3672737053
 C          0.4796534644       -1.4347116180       -0.2219415970
 C          0.0750477605       -2.4847359641       -1.0392387669
 C          0.9441576474       -3.0132566853       -1.9756213321
 C          2.2332968226       -2.5249810292       -2.0984965147
 C          2.6465708225       -1.4752214885       -1.2869836367
 N          3.9416458041       -0.9510045318       -1.3932311993
 S          4.7577942100       -0.4196789356       -0.0331022660
 O          6.1551199079       -0.4857110029       -0.4047625927
 O          4.3773957143       -1.1658668887        1.1431473354
 C          4.2873755042        1.2885813617        0.1305025570
 C          4.4520057788        2.1185817438       -0.9604518510
 C          4.1103358624        3.4556497605       -0.8410413068
 C          3.6149996645        3.9381744597        0.3609430533
 C          3.4593715055        3.0930616308        1.4482513410
 C          3.7991442637        1.7544810345        1.3345042884
 H          3.6887829978        1.0622985128        2.1549017787
 H          3.0701780939        3.4690184623        2.3808749196
 H          3.3461298970        4.9787305677        0.4518933746
 H          4.2283314095        4.1173367553       -1.6841015873
 H          4.8433395714        1.7081444062       -1.8763633863
 H          4.5492669990       -1.4364974733       -2.0366006699
 H          2.9155977942       -2.9510684920       -2.8184906556
 H          0.6193316560       -3.8253409568       -2.6086392388
 H         -0.9253774882       -2.8755070736       -0.9357872976
 C         -0.4308681123       -0.8560227019        0.8346797113
 H          0.1082860667       -0.0252427442        1.3102095053
 C         -0.7221554159       -1.9018594473        1.8951974097
 C          0.3895742667       -2.3242833468        2.8065463939
 C         -0.7448296494       -1.5010742372        3.3377146876
 H         -1.4615219063       -1.9734514518        3.9928555396
 H         -0.5560857236       -0.4634680226        3.5728132256
 H          1.3531403704       -1.8528166032        2.6757274374
 H          0.4502787004       -3.3623209069        3.0961865710
 H         -1.4252848655       -2.6583767444        1.5734102186
 O         -2.9191940445       -2.2409819957       -0.0634106539
