  62
        -98.94503910
 C         -1.1563756672       -1.8417733990       -0.6798875205
 C         -0.4777099940       -2.3640002806        0.4509788701
 C          0.9516113748       -2.6722213039        0.2519794782
 C          1.5234110575       -2.4553504027       -0.9447460086
 C          2.9718703607       -2.6796109438       -1.2666355216
 C          3.8091834209       -1.4165967644       -1.0248111007
 C          3.6038101768       -0.7845902405        0.3519595541
 H          4.2945333955        0.0585194533        0.4302325116
 H          2.5957176691       -0.3706224101        0.4207744252
 C          3.8228835466       -1.7374629972        1.5346807919
 H          4.4017795047       -2.6059218136        1.2162126036
 H          4.4067366812       -1.2174621961        2.2971356674
 C          2.5291663986       -2.2011840395        2.2078655538
 H          1.8979376739       -1.3325004165        2.4139117630
 H          2.7877759119       -2.6536058065        3.1696161964
 C          1.7023874629       -3.2315464628        1.4271824132
 H          2.3455859892       -4.0577107166        1.1138436583
 H          0.9412620522       -3.6270244299        2.1066821382
 H          4.8620594242       -1.6760853918       -1.1506057532
 H          3.5478417350       -0.6732415011       -1.7814990779
 H          3.3494744375       -3.4993192322       -0.6583771405
 H          3.0474484624       -2.9563280156       -2.3198071392
 O          0.8365772836       -1.9720649617       -2.0118329884
 C         -0.5032454914       -1.6394694118       -1.8991508770
 O         -1.0032431140       -1.1829897599       -2.9467359548
 H         -1.2387960340        0.0939747493        1.1402337952
 C         -1.8589723465        0.7059084164        0.5025587257
 C         -2.6551469991        0.1108062817       -0.4663629937
 C         -3.4592573140        0.9202288782       -1.2597590731
 C         -3.4591542697        2.2932961035       -1.0894311445
 C         -2.6366316297        2.8849800237       -0.1477808457
 C         -1.8248064493        2.0852261288        0.6489105194
 N         -0.9613858348        2.6568972290        1.6009084624
 S          0.6466902315        2.1897732730        1.6337044316
 O          0.7588738681        0.8204448663        2.0577907903
 O          1.2891358923        3.1772397006        2.4728995499
 C          1.2134283636        2.3735552934       -0.0464967534
 C          1.8368678065        3.5480122077       -0.4202793080
 C          2.2352896845        3.7052969139       -1.7378540439
 C          1.9935000717        2.6967921730       -2.6590542743
 C          1.3619056828        1.5255591163       -2.2702627960
 C          0.9708616940        1.3602256147       -0.9513937700
 H          0.4798293026        0.4571605573       -0.6241275539
 H          1.1563192682        0.7370806900       -2.9783702766
 H          2.2981588496        2.8206847409       -3.6862608765
 H          2.7299023478        4.6129225092       -2.0441980572
 H          2.0082721503        4.3033379249        0.3295360069
 H         -1.0262061067        3.6632665835        1.6624255326
 H         -2.6176212619        3.9577454221       -0.0301471555
 H         -4.0905069611        2.9112315544       -1.7092093615
 H         -4.0722968447        0.4677863959       -2.0250092553
 C         -2.6078276254       -1.3840221348       -0.6688478879
 H         -2.9884330034       -1.5857095701       -1.6837641312
 C         -3.4974079313       -2.1422611651        0.3033996129
 C         -3.9818766750       -1.5618783549        1.5943121161
 C         -4.9381241947       -1.7527103570        0.4576328257
 H         -5.6787587681       -2.5345680830        0.5298334027
 H         -5.2751892175       -0.8689571396       -0.0626645680
 H         -4.0407142405       -2.2210649706        2.4468386514
 H         -3.6786438001       -0.5575189756        1.8475249134
 H         -3.2772023614       -3.2043013373        0.3091217239
 O         -1.0134099969       -2.5832736265        1.5664258838
