  62
        -98.93234740
 C          1.6552591483        1.1503879386        0.7351391616
 C          1.8508640109       -0.2497233741        0.8286854987
 C          3.2123239546       -0.7642449929        0.5881476161
 C          4.1900748680        0.1153762730        0.3030798966
 C          5.6354402117       -0.1655299339       -0.0119944207
 C          5.8365255009       -0.7056045351       -1.4371016987
 C          4.8345630704       -1.7740663545       -1.8666278230
 H          3.8237164054       -1.3697411303       -1.7873571348
 H          5.0144682829       -1.9914467043       -2.9228670397
 C          4.9176459496       -3.0908253528       -1.0981294273
 H          4.2155427459       -3.7844186752       -1.5677072559
 H          5.9209840547       -3.5079386989       -1.2103513400
 C          4.5857321794       -3.0176227001        0.3938642629
 H          5.4171804382       -2.6077565040        0.9610081290
 H          4.4465557630       -4.0438213996        0.7462877391
 C          3.3005989379       -2.2652136267        0.7247727982
 H          3.0273742579       -2.4818704544        1.7644629179
 H          2.4803258422       -2.6708502954        0.1218802789
 H          6.8508497244       -1.1004969531       -1.5164790979
 H          5.7459472270        0.1333856375       -2.1314346309
 H          6.1662628969        0.7848905593        0.0775452944
 H          6.0522035265       -0.8473667943        0.7233919580
 O          3.9570543832        1.4554329804        0.2211653101
 C          2.7023892217        2.0131592585        0.4143155968
 O          2.6773773520        3.2499376162        0.2770591121
 O          0.9176603844       -1.0498748242        1.1075903215
 C          0.2426899586        1.6482555676        0.9776872171
 C         -0.5371121704        1.6507351321       -0.3117945485
 C         -0.0651975480        2.3099399698       -1.4428743814
 C         -0.7998055889        2.2932540789       -2.6143324628
 C         -2.0073815132        1.6203190756       -2.6825060306
 C         -2.4804742625        0.9462871732       -1.5615809163
 C         -1.7412406019        0.9679154236       -0.3863837025
 H         -2.1094749610        0.4475910762        0.4829954638
 N         -3.6722811608        0.2241467551       -1.6217550133
 S         -4.5055195689       -0.3226710717       -0.2901412747
 O         -5.7583922819       -0.7969131888       -0.8364170584
 O         -4.6070477270        0.6922958127        0.7323576076
 C         -3.5480150220       -1.7050777743        0.2929056518
 C         -3.1940479148       -1.7823987362        1.6245675197
 C         -2.4460845452       -2.8646859777        2.0586676723
 C         -2.0680174002       -3.8467637626        1.1574250423
 C         -2.4366681985       -3.7580247097       -0.1760836895
 C         -3.1846876661       -2.6785177229       -0.6158810628
 H         -3.4883501451       -2.5771686877       -1.6446625746
 H         -2.1382851799       -4.5240649240       -0.8738295924
 H         -1.4786182059       -4.6837292062        1.4970150825
 H         -2.1539753657       -2.9326883006        3.0942862701
 H         -3.5001360536       -0.9923595458        2.2929296986
 H         -4.2264128257        0.3209653252       -2.4572785208
 H         -2.5776441110        1.6100121850       -3.5986234851
 H         -0.4292643203        2.8125850383       -3.4854794678
 H          0.8766413853        2.8357622310       -1.3892454868
 H         -0.2134776784        0.8857310554        1.6297141316
 C          0.1733639879        2.9735185549        1.7217075625
 C         -0.3369496982        4.2424576666        1.1147559838
 C         -1.1626742616        3.5190632353        2.1334025687
 H         -1.2671191177        3.9487174021        3.1183050570
 H         -2.0420373134        2.9953097942        1.7857775451
 H          0.1522528542        5.1619392380        1.3980533497
 H         -0.6659057474        4.2251178266        0.0879108432
 H          0.9824082938        3.0799246135        2.4371210380
