  62
        -98.93229673
 C         -2.2332363192       -1.5359431066        0.3173985961
 C         -2.6002486262       -0.6289657248       -0.7032022420
 C         -3.6061473055        0.3953945462       -0.3490414891
 C         -4.0601999620        0.4660954441        0.9140976783
 C         -5.0662676936        1.4175322066        1.5111377739
 C         -4.9412788823        2.8968421272        1.1153662219
 C         -6.0634398760        3.3773007814        0.1932522232
 H         -7.0014293658        2.9274680501        0.5252233366
 H         -6.1646179265        4.4594497787        0.3016287959
 C         -5.8579975850        3.0792656138       -1.2908669112
 H         -6.7817947461        3.3419986035       -1.8116206280
 H         -5.0692070018        3.7249970841       -1.6830969945
 C         -5.5031406040        1.6286191281       -1.6228500436
 H         -6.0915351739        0.9428177251       -1.0143891325
 H         -5.7783157015        1.4477508739       -2.6640688761
 C         -4.0076035721        1.3116370232       -1.4733067539
 H         -3.4342039583        2.2401695911       -1.3932483671
 H         -3.6452250008        0.8144335793       -2.3786630517
 H         -4.9815447271        3.4897130806        2.0307185698
 H         -3.9691667928        3.0786034826        0.6589917976
 H         -6.0694378506        1.0542653632        1.2738919811
 H         -4.9451717924        1.3119520709        2.5916961028
 O         -3.6453497608       -0.4037165176        1.8796370692
 C         -2.7487925867       -1.4184114954        1.6108289724
 O         -2.4906833560       -2.1464180800        2.5899273299
 O         -2.1262637997       -0.6502498109       -1.8699599496
 C         -1.2492592590       -2.6782016018        0.1129333942
 C          0.1658494858       -2.1989921356        0.3097872070
 C          1.0114688440       -2.8106428841        1.2270008668
 C          2.3007580288       -2.3431435725        1.4151102918
 C          2.7723566168       -1.2618808802        0.6924151641
 C          1.9322679453       -0.6392086033       -0.2216132980
 C          0.6410078849       -1.1095528638       -0.4080264220
 H         -0.0101609424       -0.6233241750       -1.1199229579
 N          2.4020565005        0.4582506348       -0.9671673970
 S          3.0717829468        1.7394312940       -0.1114063658
 O          2.5115865083        1.8390222898        1.2174198830
 O          2.9108584692        2.8960548792       -0.9655121205
 C          4.8009300941        1.3241621950       -0.0192463365
 C          5.4388874545        1.2949158076        1.2052928735
 C          6.7874939901        0.9766040724        1.2504943124
 C          7.4700659730        0.6956253157        0.0768754398
 C          6.8150271853        0.7317340803       -1.1453028479
 C          5.4675095725        1.0504029628       -1.1977043563
 H          4.9217504117        1.0916016605       -2.1254803323
 H          7.3490245635        0.5121749880       -2.0557602232
 H          8.5188037638        0.4467543627        0.1151424596
 H          7.2982057403        0.9482881961        2.1996075563
 H          4.8651201366        1.5133988134        2.0919403697
 H          1.7254096327        0.7979395039       -1.6366673112
 H          3.7744829915       -0.8923217903        0.8365038242
 H          2.9459724408       -2.8256110585        2.1332428208
 H          0.6452856982       -3.6451058451        1.8070467595
 H         -1.4718867111       -3.3901562910        0.9231348972
 C         -1.4597068068       -3.4134348050       -1.2047990233
 C         -0.4738463174       -3.4103511232       -2.3307861761
 C         -0.6566748096       -4.6449905317       -1.5040001535
 H         -1.1559611478       -5.4966292118       -1.9404092728
 H          0.1308715316       -4.8998304641       -0.8107535945
 H         -0.8675057501       -3.3916853412       -3.3356888258
 H          0.4396558660       -2.8495710510       -2.2125619931
 H         -2.5070610054       -3.4367447305       -1.4882077844
