  62
        -98.93930738
 C         -1.4426374787       -1.2887808243       -0.6310265793
 C         -2.7275624464       -1.2214092354       -0.0376235165
 C         -3.5647376150       -0.0470170234       -0.3446998715
 C         -3.0715195147        0.8952750934       -1.1692498395
 C         -3.7050612283        2.1931918031       -1.5958914188
 C         -3.6545333195        3.2629918536       -0.4946694623
 C         -4.0537044506        2.7711269582        0.8938915053
 H         -3.3817710928        1.9636544830        1.1921043077
 H         -3.8944941306        3.5951674122        1.5947652905
 C         -5.5034600833        2.3110716846        1.0321265032
 H         -5.6736408697        2.0976951547        2.0904850979
 H         -6.1668619476        3.1308948107        0.7481242514
 C         -5.8932962480        1.0665414043        0.2305701597
 H         -6.0694508296        1.3088197779       -0.8140221552
 H         -6.8460270940        0.7082096292        0.6310210163
 C         -4.9094348996       -0.0937206438        0.3403503205
 H         -4.7046966136       -0.2931317382        1.3985507546
 H         -5.3969698463       -1.0021799301       -0.0334731216
 H         -2.6284639033        3.6352117325       -0.4311944890
 H         -4.2989824139        4.0931143810       -0.7897713101
 H         -3.1335506195        2.5526422426       -2.4545843687
 H         -4.7264605904        2.0240510230       -1.9237779990
 O         -1.8351030476        0.7867280051       -1.7279287010
 C         -0.9862940427       -0.2745940924       -1.4715510113
 O          0.1054880178       -0.1878290042       -2.0673388068
 O         -3.1710574325       -2.1201431476        0.7291476143
 C         -0.5910124048       -2.4909335529       -0.2577379602
 C          0.2440505278       -2.1653034964        0.9590205987
 C          0.1073250787       -2.8990231805        2.1307611052
 C          0.8435434179       -2.5685286248        3.2547197288
 C          1.7108933742       -1.4927755548        3.2329928825
 C          1.8568257981       -0.7510841415        2.0636099408
 C          1.1431597292       -1.1074839076        0.9292967230
 H          1.2511958278       -0.5279231175        0.0281461777
 N          2.7373637803        0.3357321874        2.0302900397
 S          2.5205005361        1.6860206009        1.0607273212
 O          3.1110864308        2.7635782657        1.8305401673
 O          1.1399654062        1.8628064032        0.6809898595
 C          3.5781663287        1.3584561630       -0.3337408129
 C          4.9395238917        1.4788215352       -0.1229440240
 C          5.8091660620        1.2185656887       -1.1680184056
 C          5.3059248497        0.8420728278       -2.4047566031
 C          3.9391018986        0.7283768180       -2.6002884300
 C          3.0610902869        0.9890641739       -1.5577054758
 H          1.9937566682        0.8983247175       -1.6913051990
 H          3.5403702045        0.4349658690       -3.5585061686
 H          5.9812534914        0.6374452541       -3.2206403301
 H          6.8728068618        1.3089463712       -1.0174344710
 H          5.2857239350        1.7872034010        0.8494750560
 H          3.1443782454        0.5795824109        2.9207864475
 H          2.2694644580       -1.2194732887        4.1153809512
 H          0.7288517384       -3.1435724375        4.1610835268
 H         -0.5974699739       -3.7166477278        2.1635537085
 H         -1.3071299324       -3.2723506659        0.0326212016
 C          0.2729422721       -3.0269828190       -1.3804190260
 C          0.7230861470       -4.4552491980       -1.3277235127
 C         -0.3017784970       -4.0286033051       -2.3345885326
 H         -0.0165481393       -3.9698455207       -3.3740209536
 H         -1.3267424381       -4.3338446339       -2.1808793779
 H          1.7165730913       -4.6934849041       -1.6746638331
 H          0.3927906506       -5.0540567169       -0.4925196702
 H          0.9609643279       -2.2963069105       -1.7836588312
