  62
        -98.94626561
 C          1.8050111486        1.0607489638       -0.2957809966
 C          3.1606891088        1.3037965923        0.0308241063
 C          4.1132551560        0.2702406774       -0.3897121792
 C          3.6730281188       -0.8110476925       -1.0589271562
 C          4.5246496463       -1.9386103571       -1.5762540554
 C          4.8359119111       -3.0178592168       -0.5300960698
 C          5.8389808763       -2.6080419183        0.5489150640
 H          6.1282152016       -3.5174188325        1.0794570021
 H          6.7365939942       -2.2081403357        0.0762246422
 C          5.2955826720       -1.5951976221        1.5664496995
 H          4.2045246342       -1.5767404029        1.5143713904
 H          5.5623823246       -1.9144378411        2.5764583647
 C          5.8234727559       -0.1716850409        1.3876140195
 H          6.9006550910       -0.1546375081        1.5675399268
 H          5.3477521064        0.4674489509        2.1359300770
 C          5.5501035417        0.4342630708        0.0046815673
 H          6.2038476540       -0.0186183188       -0.7403883719
 H          5.7616446327        1.5053668098        0.0515500873
 H          5.2413793382       -3.8806757512       -1.0635117401
 H          3.9003881117       -3.3277264205       -0.0588994073
 H          3.9647933925       -2.4010810153       -2.3919612856
 H          5.4566218084       -1.5396133158       -1.9776377403
 O          2.3623870577       -0.9989747618       -1.3681731843
 C          1.3958858696       -0.0813228766       -0.9826103725
 O          0.2352882071       -0.3932327600       -1.3085109357
 O          3.5535027638        2.3317187992        0.6447419303
 C          0.7560072170        2.0797649120        0.1102136244
 C         -0.2927925329        1.4269708333        0.9752595891
 C          0.1152050327        0.7322481176        2.1123702155
 C         -0.8064250557        0.1141800059        2.9338880593
 C         -2.1573503845        0.1680930507        2.6349533322
 C         -2.5760563424        0.8633614974        1.5082510388
 C         -1.6472742139        1.4973756431        0.6922459638
 H         -2.0046548337        2.0239828195       -0.1760875925
 N         -3.9444076576        0.9603018292        1.1904593018
 S         -4.4895554141        0.4369636171       -0.3043527088
 O         -3.8448942505        1.1830084584       -1.3524418015
 O         -5.9297798784        0.5557354507       -0.2284074529
 C         -4.0435408296       -1.2892521967       -0.3679724967
 C         -5.0103879869       -2.2275074152       -0.0589558324
 C         -4.6662191019       -3.5688605405       -0.0436226606
 C         -3.3623304142       -3.9479953926       -0.3265637808
 C         -2.4043852700       -2.9932372664       -0.6292168925
 C         -2.7411488792       -1.6479453322       -0.6517019157
 H         -2.0024778740       -0.8984700069       -0.8891969357
 H         -1.3870262303       -3.2751437436       -0.8505109081
 H         -3.0905996573       -4.9918845958       -0.3126934249
 H         -5.4113527234       -4.3123340295        0.1897280678
 H         -6.0113422230       -1.8861268626        0.1506467104
 H         -4.5532740546        0.5936217830        1.9092151528
 H         -2.8804639725       -0.3196350759        3.2710850790
 H         -0.4727369273       -0.4199338696        3.8107019867
 H          1.1714351290        0.6846239201        2.3408572394
 H          1.2913155479        2.8228854787        0.7201554200
 C          0.1922174102        2.7737193276       -1.1114818803
 C         -0.3531233329        4.1651012309       -1.0013183849
 C          0.9461011072        3.9227853979       -1.7076257627
 H          0.9762869940        4.0175972108       -2.7827826965
 H          1.8601499025        4.2235343485       -1.2165133803
 H         -1.2200870712        4.4243145390       -1.5905121215
 H         -0.3225267340        4.6383249583       -0.0314376802
 H         -0.2971501361        2.0899283086       -1.7971388253
