  62
        -98.94350213
 C          0.9003587086        1.6469701948       -0.3528127616
 C          1.1929479740        0.2903442421       -0.6408463961
 C          2.3185182148       -0.2926188774        0.1096971974
 C          2.9181319817        0.4241385914        1.0751087030
 C          4.0803947818       -0.0454192205        1.9008899096
 C          5.4181605676        0.3470108856        1.2584637795
 C          5.5175831947       -0.0105186958       -0.2243791488
 H          4.7964938866        0.5904753298       -0.7829586805
 H          6.5133383579        0.2831256490       -0.5634554703
 C          5.2875504052       -1.4959963031       -0.5349323050
 H          6.0516212121       -1.8280080533       -1.2410030445
 H          5.4077172157       -2.0866166610        0.3739458827
 C          3.9298682136       -1.8083871578       -1.1669318471
 H          3.7654674444       -1.1491906843       -2.0227139376
 H          3.9602366814       -2.8339130240       -1.5438464183
 C          2.7148567260       -1.7003766198       -0.2363007443
 H          2.8892560731       -2.2843369965        0.6703057153
 H          1.8547643972       -2.1258803402       -0.7608088858
 H          5.5465810987        1.4270971696        1.3607985432
 H          6.2224643436       -0.1443842088        1.8090598744
 H          4.0084770673        0.4180833233        2.8865591733
 H          4.0219455016       -1.1261312173        2.0167986136
 O          2.5541883271        1.6958133607        1.3833516877
 C          1.5558466623        2.3362270616        0.6699667732
 O          1.3456167382        3.5132356510        1.0309320619
 O          0.5682996140       -0.4131200772       -1.4743450750
 C         -0.2000215406        2.4327759155       -1.0504655778
 C         -1.4909852653        2.2887387259       -0.2869674053
 C         -2.2746704584        3.3902177019        0.0344973970
 C         -3.4389497431        3.2317053737        0.7660154478
 C         -3.8326910537        1.9795475211        1.2030904980
 C         -3.0541938612        0.8722223355        0.8849799711
 C         -1.9044708532        1.0310531453        0.1278405887
 H         -1.3066974167        0.1685258082       -0.1165976745
 N         -3.4189308262       -0.4177176321        1.2945187933
 S         -2.2361796657       -1.5512377533        1.6391422363
 O         -2.9086615982       -2.5217162547        2.4809727212
 O         -1.0581279117       -0.9429108413        2.2163998914
 C         -1.8536548681       -2.3322461429        0.0862852778
 C         -2.6923204782       -2.1962494741       -1.0004732927
 C         -2.3725467171       -2.8557355781       -2.1762978065
 C         -1.2354333430       -3.6442890052       -2.2423002212
 C         -0.4086631245       -3.7777443661       -1.1387083733
 C         -0.7176960479       -3.1139073769        0.0369907731
 H         -0.0919130753       -3.1731687918        0.9140618427
 H          0.4785147286       -4.3890602892       -1.1910877345
 H         -0.9870621212       -4.1530337101       -3.1604388373
 H         -3.0103023765       -2.7470722334       -3.0389282799
 H         -3.5668158287       -1.5714071419       -0.9227067529
 H         -4.1995375026       -0.4723182655        1.9318039061
 H         -4.7295919982        1.8581858451        1.7910622899
 H         -4.0390062436        4.0943544541        1.0129373734
 H         -1.9555638041        4.3753577164       -0.2726735600
 H          0.1065744666        3.4893141278       -0.9827502619
 C         -0.3419903952        2.0942684967       -2.5275445953
 C         -1.4720511703        1.2879324160       -3.0852124052
 C         -1.4064852490        2.7604351639       -3.3487595530
 H         -1.1550819543        3.1008931407       -4.3418056828
 H         -2.1109885925        3.3922564953       -2.8290982651
 H         -1.2446693125        0.6015101263       -3.8858087886
 H         -2.2212202677        0.9223904254       -2.4010588803
 H          0.6244117511        1.9576228712       -3.0017947721
