  62
        -98.93859388
 C         -1.9220694796       -1.1394054804       -0.0558691310
 C         -2.5097101098       -0.4192735211        1.0155232293
 C         -3.1425475701        0.8711518689        0.6982284999
 C         -3.1320962001        1.3102456495       -0.5738390599
 C         -3.6343087104        2.5977546997       -1.1936236693
 C         -4.5338577706        3.5444953791       -0.4038160690
 C         -5.9370257005        3.0056264187       -0.1247606093
 H         -6.4902697005        2.9795493590       -1.0668876393
 H         -6.4463408407        3.7054043483        0.5410949110
 C         -5.9974335402        1.6062045484        0.4821263701
 H         -5.5575744200        0.8869064488       -0.2116593603
 H         -7.0508805402        1.3383898481        0.5996418699
 C         -5.3258278303        1.4550385979        1.8451978400
 H         -5.5694537501        0.4588632377        2.2239144295
 H         -5.7379915705        2.1877784075        2.5415395003
 C         -3.7937110503        1.5878873283        1.8464451002
 H         -3.4138932903        1.1138020779        2.7561163500
 H         -3.4869343806        2.6308536383        1.8707315607
 H         -4.6414079608        4.4486335994       -1.0092263885
 H         -4.0447704208        3.8417013388        0.5191766612
 H         -4.1423296503        2.3075697600       -2.1191084195
 H         -2.7334383705        3.1438213901       -1.4966632690
 O         -2.5592125799        0.5820593002       -1.5747155302
 C         -1.9331900596       -0.6326432098       -1.3535255908
 O         -1.4537674695       -1.1331862592       -2.3930220610
 O         -2.5001755098       -0.8406882616        2.2030615391
 C         -1.2256634293       -2.4421836404        0.3059829784
 C          0.2470874806       -2.1748449002        0.5047660186
 C          0.8544088506       -2.3505342506        1.7424364586
 C          2.1898930905       -2.0352500204        1.9255453588
 C          2.9403158605       -1.5177323297        0.8841175391
 C          2.3386517105       -1.3344977293       -0.3532553309
 C          1.0120069906       -1.6815035595       -0.5431273311
 H          0.5544166206       -1.5223300292       -1.5086666811
 N          3.0814398004       -0.7263615386       -1.4018298905
 S          3.0538143200        0.9577402413       -1.2654482797
 O          1.7656986299        1.4325913308       -0.8056959396
 O          3.5027198900        1.4643767220       -2.5441880695
 C          4.2916846399        1.2698972710       -0.0267640195
 C          3.9023210997        1.6330224803        1.2473670806
 C          4.8771581696        1.8431604701        2.2101753008
 C          6.2155301397        1.6865444005        1.8828019208
 C          6.5897735598        1.3231338412        0.5974571806
 C          5.6202911099        1.1103612715       -0.3696001095
 H          5.8625474700        0.8311735220       -1.3814472396
 H          7.6314927799        1.2037572116        0.3471173106
 H          6.9712654196        1.8495495003        2.6348638209
 H          4.5873229295        2.1247355895        3.2097261509
 H          2.8492239697        1.7386555300        1.4549851406
 H          2.7067115905       -0.9614242783       -2.3124395807
 H          3.9769142004       -1.2555295396        1.0195503593
 H          2.6474292905       -2.1805730608        2.8919134388
 H          0.2640300706       -2.7161876712        2.5697336684
 H         -1.6477308893       -2.7371843210        1.2760391382
 C         -1.4581314690       -3.5667995900       -0.6819286821
 C         -1.2628548487       -4.9813137102       -0.2275254328
 C         -2.6428345988       -4.4661415604       -0.5031958626
 H         -3.1607041587       -4.8138561001       -1.3843553528
 H         -3.2935066889       -4.2736372509        0.3373261274
 H         -0.8301969885       -5.6879817098       -0.9187308431
 H         -0.9787648787       -5.1407630906        0.8014680572
 H         -1.1738855990       -3.3176329895       -1.6958793820
