  62
        -98.93356764
 C          2.0077495166        0.6174254499        0.9836296693
 C          2.8672504248        1.0764108401       -0.0436556604
 C          4.2615773488        0.5940278226        0.0109878958
 C          4.6422626192       -0.2411336043        0.9912499843
 C          6.0082065803       -0.8236794447        1.2559171491
 C          6.8079729634       -1.3360537674        0.0503397050
 C          5.9623860975       -1.9352516281       -1.0828614242
 H          6.3629852371       -2.9168896317       -1.3430338879
 H          4.9346885292       -2.0828513157       -0.7460045009
 C          5.9662204505       -1.0758920644       -2.3494762357
 H          6.9845927286       -0.7255383687       -2.5317101351
 H          5.6793404333       -1.7013478427       -3.1983233444
 C          5.0197988702        0.1235662430       -2.3307087074
 H          3.9839369652       -0.2232491114       -2.3750412893
 H          5.2005208023        0.7084895811       -3.2357163589
 C          5.1500715714        1.0501958462       -1.1107378168
 H          6.1858132972        1.1402113875       -0.7928117872
 H          4.7865922467        2.0396079743       -1.4010708654
 H          7.4191616618       -0.5291634280       -0.3517158356
 H          7.4975299523       -2.0926036792        0.4289001124
 H          6.6015753679       -0.0720735928        1.7849509351
 H          5.8342643826       -1.6453196182        1.9550776321
 O          3.7773109572       -0.6662470399        1.9564685649
 C          2.4569407424       -0.2590212965        1.9736653258
 O          1.7873525245       -0.7323656071        2.9151502287
 H         -1.5863822996       -0.4283947349        1.9066435210
 C         -1.3830157861       -0.5764614917        0.8545167812
 C         -0.3104520810        0.0790580977        0.2684316447
 C         -0.0538285604       -0.1356529258       -1.0823628884
 C         -0.8493549046       -0.9925560849       -1.8206742808
 C         -1.9185065522       -1.6457036036       -1.2320528502
 C         -2.1853971613       -1.4343820467        0.1135047231
 N         -3.2985161424       -2.0698798836        0.7023829599
 S         -4.7824572461       -1.6834718812        0.0173932923
 O         -5.7669539659       -1.9775150515        1.0334841247
 O         -4.9259335298       -2.3855666609       -1.2320099177
 C         -4.6699285139        0.0728913927       -0.2689093991
 C         -4.8532288044        0.9218698346        0.8047346168
 C         -4.6637715636        2.2822073413        0.6238165051
 C         -4.2814340810        2.7663249690       -0.6180678944
 C         -4.1045580377        1.9012358122       -1.6862520350
 C         -4.2999455535        0.5401778578       -1.5138673937
 H         -4.1754324152       -0.1639788153       -2.3197244644
 H         -3.8079671595        2.2812805123       -2.6505344008
 H         -4.1164920119        3.8232989090       -0.7522667217
 H         -4.8046480702        2.9590047548        1.4513359768
 H         -5.1503018997        0.5063802180        1.7546606363
 H         -3.3413662324       -1.9498370733        1.7046142225
 H         -2.5546593985       -2.3104553560       -1.7940068712
 H         -0.6367597837       -1.1528331287       -2.8668612421
 H          0.7715523481        0.3834842106       -1.5451368776
 C          0.5437380645        1.0130455698        1.0855692119
 H          0.2829983543        0.8582247990        2.1443607343
 C          0.2909925393        2.4813354924        0.7656986879
 C         -0.5478555648        2.9489955380       -0.3824742528
 C         -1.0678169171        3.0661049893        1.0162319618
 H         -1.1359094229        4.0433962154        1.4689258611
 H         -1.8514567658        2.3842090573        1.3118692304
 H         -0.9940646372        2.2092288127       -1.0281104470
 H         -0.2295818032        3.8424597479       -0.8970206989
 H          1.1418847660        3.1033475713        1.0216089270
 O          2.5154083962        1.8558128597       -0.9642057481
