  62
        -98.93873569
 C         -2.0571563174       -0.4910011796       -0.1843861762
 C         -3.0335931751       -0.8999489107        0.7568467092
 C         -4.2205338493       -0.0397947746        0.8969931118
 C         -4.3022013827        1.0812732735        0.1597705885
 C         -5.4363217417        2.0675304823        0.1129389752
 C         -6.4145898215        1.7186057109       -1.0217276968
 C         -7.5155983458        0.7292296130       -0.6418677879
 H         -8.2251573576        1.2218167732        0.0262930261
 H         -8.0524836530        0.4733295325       -1.5582476757
 C         -7.0337701053       -0.5628791414        0.0228830458
 H         -7.8186026404       -1.3125288171       -0.0951534819
 H         -6.1495076197       -0.9362537645       -0.4967450413
 C         -6.7285535321       -0.3948747622        1.5187672484
 H         -7.1291579768        0.5597225922        1.8593762092
 H         -7.2522495831       -1.1688926796        2.0836549283
 C         -5.2444845778       -0.4978803645        1.8995758974
 H         -4.9910057651       -1.5445627767        2.0949644820
 H         -5.0783902447        0.0423403232        2.8377345813
 H         -6.8911947354        2.6379025523       -1.3682002675
 H         -5.8315344903        1.3190555874       -1.8555154929
 H         -5.9456956412        2.1159034019        1.0707772900
 H         -4.9914816976        3.0422576304       -0.0984616619
 O         -3.3322450625        1.4489658150       -0.7206608524
 C         -2.1924787337        0.6873152327       -0.9179398079
 O         -1.4078533294        1.1638689196       -1.7606343917
 O         -2.9225512172       -1.9484613785        1.4471415546
 C         -0.8175789917       -1.3575859111       -0.3402821236
 C          0.3452050410       -0.6436710337        0.3039343155
 C          0.5750014283       -0.8040797662        1.6674833483
 C          1.5994575703       -0.1212870585        2.2965414729
 C          2.4145268777        0.7380665788        1.5807972184
 C          2.1926589856        0.9047470954        0.2199631623
 C          1.1734850730        0.2055571568       -0.4141645585
 H          0.9984034792        0.3610837592       -1.4668213022
 N          3.0065841185        1.7814628984       -0.5127521116
 S          4.6515825658        1.7888090353       -0.2296501248
 O          4.9409518179        2.5629260142        0.9524932662
 O          5.2463205795        2.2682773974       -1.4575718673
 C          5.0898138845        0.0813165924        0.0485851819
 C          5.6426309241       -0.3013015959        1.2536215589
 C          5.9553108900       -1.6363453573        1.4543755063
 C          5.7084906054       -2.5613349031        0.4521569772
 C          5.1553205683       -2.1608313795       -0.7547257026
 C          4.8414017437       -0.8275293882       -0.9610964081
 H          4.4158172449       -0.4832358993       -1.8899143976
 H          4.9653603314       -2.8819047045       -1.5334345943
 H          5.9490461795       -3.6007110381        0.6107563988
 H          6.3872082400       -1.9498292590        2.3911175762
 H          5.8175575608        0.4504227423        2.0060640077
 H          2.7835157188        1.8320279593       -1.4950305328
 H          3.2036652636        1.2956527586        2.0584792560
 H          1.7637525117       -0.2541726689        3.3549853144
 H         -0.0729160793       -1.4599546271        2.2315482956
 H         -1.0245129622       -2.2623118664        0.2465561320
 C         -0.5635000284       -1.7589592822       -1.7782564520
 C          0.4081939930       -2.8633488935       -2.0651160274
 C         -1.0599420967       -3.0855567806       -2.2663994331
 H         -1.4396041618       -3.1529486646       -3.2750525773
 H         -1.5837596755       -3.7141121426       -1.5612623381
 H          1.0386929515       -2.7818470173       -2.9371235981
 H          0.8810926083       -3.3398699541       -1.2199724204
 H         -0.6104181202       -0.9306436123       -2.4740128625
