  62
        -98.94507312
 C         -1.3125192869       -1.4838374789        0.3974569835
 C         -1.8332776297       -0.4884892853        1.2621385308
 C         -2.8414535772        0.4085751063        0.6886736294
 C         -3.1849816197        0.2816090479       -0.6053850607
 C         -4.1897245202        1.1248643747       -1.3419537043
 C         -3.6190190696        2.4547850553       -1.8538192852
 C         -3.3878459881        3.5202753226       -0.7813518220
 H         -4.2904947720        3.6331570273       -0.1791839722
 H         -3.2212392111        4.4653825321       -1.3021975027
 C         -2.1847956979        3.2478661981        0.1324311369
 H         -1.6059922807        4.1676097201        0.2522400738
 H         -1.5205933740        2.5251169317       -0.3497596580
 C         -2.5516736783        2.7591459815        1.5342348254
 H         -3.0892919777        3.5491673538        2.0640337453
 H         -1.6269492457        2.5593767103        2.0813542947
 C         -3.4072047677        1.4863093489        1.5643548228
 H         -4.4298276520        1.7158751533        1.2652343015
 H         -3.4182489062        1.1077531768        2.5897202667
 H         -4.3252119002        2.8531243202       -2.5864175111
 H         -2.6768786068        2.2557658110       -2.3715309645
 H         -5.0514045607        1.3180276666       -0.7018226602
 H         -4.5186389691        0.5371146986       -2.2017730140
 O         -2.6480106697       -0.6697952132       -1.4119149977
 C         -1.6817964278       -1.5539558413       -0.9474146385
 O         -1.2558556449       -2.3333328586       -1.8204219442
 O         -1.4645109486       -0.3504437189        2.4594502668
 C         -0.2158568307       -2.3804986077        0.9428754004
 C          0.9891665261       -2.3440391748        0.0333423688
 C          1.7646223786       -3.4514708495       -0.2834053176
 C          2.8670268290       -3.3160129859       -1.1110400370
 C          3.2227666264       -2.0870654063       -1.6351004208
 C          2.4484775542       -0.9724607442       -1.3283606859
 C          1.3574381382       -1.1114244046       -0.4890346741
 H          0.7458888419       -0.2497203682       -0.2769028459
 N          2.7464060568        0.2849418447       -1.8609122516
 S          2.1197555222        1.7006091831       -1.2571832822
 O          0.6941665653        1.7636003829       -1.4651652226
 O          2.9000001022        2.7300524838       -1.9109186463
 C          2.5054458549        1.6828356017        0.4844508707
 C          1.4954810533        1.6681681987        1.4236765912
 C          1.8261394295        1.6124596143        2.7681184931
 C          3.1582843750        1.5792772393        3.1491391718
 C          4.1641820465        1.6086094388        2.1946085776
 C          3.8375130292        1.6577910093        0.8494837310
 H          4.5916691276        1.6880920063        0.0802814375
 H          5.1993083520        1.5876660700        2.4950983596
 H          3.4116722309        1.5311212118        4.1963821188
 H          1.0368512637        1.5788395130        3.5025744948
 H          0.4670672688        1.6886202062        1.0973469329
 H          3.6261090585        0.3848876950       -2.3407374125
 H          4.0755800230       -1.9899357446       -2.2888816448
 H          3.4579571488       -4.1856709828       -1.3555916182
 H          1.4990083524       -4.4237268820        0.0976050681
 H          0.0764028083       -1.8930595446        1.8897871447
 C         -0.6608334599       -3.7895688040        1.3085685907
 C         -2.1106264592       -4.1361519439        1.4646354634
 C         -1.3255020430       -4.6977958423        0.3193557146
 H         -1.0745339541       -5.7483692664        0.3372933706
 H         -1.5072216530       -4.3045107046       -0.6682580698
 H         -2.3960510060       -4.7959743506        2.2704397027
 H         -2.8371303949       -3.3646315726        1.2527210290
 H          0.0145960774       -4.2590796727        2.0169792982
