  62
        -98.93600060
 C          2.0140421308        1.5288636551        0.0948870836
 C          2.3301393904        0.5761239419       -0.9022381551
 C          3.6676494342       -0.0449330407       -0.8199132181
 C          4.4954309943        0.2781418825        0.1898918484
 C          5.9078302187       -0.1683564036        0.5043605807
 C          6.5023565670       -1.4097385955       -0.1562193913
 C          5.8340486494       -2.7270434775        0.2348980713
 H          6.2846061381       -3.5262954792       -0.3577872680
 H          6.0514934976       -2.9301098410        1.2865574133
 C          4.3180331505       -2.7749736473        0.0602369735
 H          3.9788032051       -3.7712558446        0.3573579845
 H          3.8469202734       -2.0616683997        0.7400829895
 C          3.8152186894       -2.5164611897       -1.3590310028
 H          4.3165208119       -3.1919766003       -2.0549203696
 H          2.7476912740       -2.7529022854       -1.3763022034
 C          3.9791965209       -1.0734010994       -1.8691112636
 H          3.2582814982       -0.9184051255       -2.6770791332
 H          4.9719867523       -0.9096618641       -2.2812637820
 H          6.5119039598       -1.2960297176       -1.2362740573
 H          7.5460762000       -1.4619470810        0.1655343565
 H          5.9426815440       -0.2908797626        1.5915691598
 H          6.5503068870        0.6878918014        0.2705182737
 O          4.1400918919        1.1911711166        1.1404108027
 C          2.9155424999        1.8307481358        1.1185221359
 O          2.7479071236        2.6419121258        2.0509191116
 O          1.5516390638        0.2405659595       -1.8326539988
 C          0.6965599170        2.2868821452        0.1451878148
 C         -0.3744012947        1.4810688482        0.8342970063
 C         -1.1270246164        2.0253795303        1.8679981171
 C         -2.1133083208        1.2792625633        2.4905060620
 C         -2.3718998365       -0.0197852137        2.0922935741
 C         -1.6282578498       -0.5707865552        1.0560261080
 C         -0.6400203827        0.1783442990        0.4341376212
 H         -0.0691061417       -0.2524001618       -0.3749315749
 N         -1.8920150842       -1.8851020285        0.6312220297
 S         -3.4925885183       -2.2938380297        0.3572382186
 O         -4.1310003732       -2.6024389652        1.6128196732
 O         -3.4546923740       -3.3659755768       -0.6117855497
 C         -4.2254759814       -0.8290669270       -0.3496071344
 C         -3.7566305268       -0.3955141359       -1.5740823984
 C         -4.2771852230        0.7678000247       -2.1174419510
 C         -5.2496983637        1.4761398931       -1.4283069859
 C         -5.7138254322        1.0247889945       -0.2027092267
 C         -5.1972335426       -0.1384218707        0.3453763474
 H         -5.5287604872       -0.5244108020        1.2953959381
 H         -6.4719204962        1.5763167263        0.3294747647
 H         -5.6462531860        2.3854024792       -1.8512940039
 H         -3.9155277920        1.1210879319       -3.0696562735
 H         -3.0000687355       -0.9698341124       -2.0855886900
 H         -1.3047459949       -2.1851133667       -0.1333480129
 H         -3.1293384860       -0.6189227733        2.5710715417
 H         -2.6859560842        1.7127372459        3.2959186861
 H         -0.9242621062        3.0353546778        2.1928640484
 H          0.9017177227        3.1677187838        0.7733593155
 C          0.2630531937        2.8017982772       -1.2222936875
 C         -0.9095076417        2.2680017286       -1.9830005783
 C         -0.9853806796        3.6236826249       -1.3524165521
 H         -0.9656938163        4.4967457802       -1.9866790571
 H         -1.6021167496        3.7275069504       -0.4724808466
 H         -0.8131624321        2.1943500122       -3.0554403341
 H         -1.4867150091        1.4710697428       -1.5417609767
 H          1.1152220260        3.1162271288       -1.8168008604
