  62
        -98.93775835
 C          1.1927333282        1.4072527442        0.5493710039
 C          2.0303158720        1.0357981756       -0.5287139612
 C          3.1687810306        0.1537288673       -0.2056827558
 C          3.3177776521       -0.3099629300        1.0483230316
 C          4.3829542900       -1.1889869785        1.6703002824
 C          5.3592420577       -1.9700838980        0.7951484672
 C          4.7252214214       -3.0955535508       -0.0223676348
 H          5.4878942052       -3.5067019131       -0.6874438381
 H          4.4164867187       -3.8902852616        0.6616414086
 C          3.5027928425       -2.7068648272       -0.8510836523
 H          2.6927068095       -2.3872823105       -0.1908755176
 H          3.1495403292       -3.6042744616       -1.3671674099
 C          3.7419976702       -1.6290315317       -1.9066063782
 H          2.8327051151       -1.5557688353       -2.5099610170
 H          4.5583476231       -1.9342169985       -2.5645134146
 C          4.0491486378       -0.2240484825       -1.3618735940
 H          5.0988503380       -0.1226648837       -1.0971803533
 H          3.8378283199        0.4964359133       -2.1575363812
 H          5.9107908781       -1.2930124699        0.1495429201
 H          6.0872374051       -2.4256420947        1.4719841696
 H          4.9597542443       -0.5337914909        2.3328285966
 H          3.8464685967       -1.8885395367        2.3197160823
 O          2.4459697749        0.0267204775        2.0443904987
 C          1.3627528104        0.8564700148        1.8197370834
 O          0.6293085922        1.0204511756        2.8163684045
 O          1.8551750289        1.4194326076       -1.7137894757
 C         -0.0340656719        2.2787365078        0.3446093481
 C         -0.8442799791        1.7452178258       -0.8123171287
 C         -1.3531031572        2.5228041009       -1.8435212336
 C         -2.1109461430        1.9402748100       -2.8456246294
 C         -2.3969333602        0.5872441556       -2.8312432604
 C         -1.8892286504       -0.1996158780       -1.8032225147
 C         -1.1197395601        0.3840894443       -0.8123544428
 H         -0.7006436214       -0.2398386438       -0.0375967823
 N         -2.1474652673       -1.5773452375       -1.7387225109
 S         -2.3153215878       -2.3093364025       -0.2461916862
 O         -1.0277433003       -2.4988255746        0.3747926296
 O         -3.0611476952       -3.5184317138       -0.5255956823
 C         -3.3262192153       -1.1871238602        0.7047687155
 C         -2.8057243517       -0.5062723323        1.7858915951
 C         -3.6155898548        0.3909084802        2.4652260659
 C         -4.9245238082        0.5899592780        2.0559788355
 C         -5.4368530908       -0.1096326278        0.9735573809
 C         -4.6315473096       -1.0044355996        0.2893385877
 H         -4.9967125084       -1.5743058820       -0.5494883530
 H         -6.4571013715        0.0426035773        0.6606661457
 H         -5.5477772171        1.2925351679        2.5862082147
 H         -3.2089535070        0.9314978687        3.3053376957
 H         -1.7817364572       -0.6733162105        2.0837949455
 H         -2.8117067141       -1.9245608368       -2.4142302738
 H         -2.9918314875        0.1387613709       -3.6119091794
 H         -2.4911443301        2.5527857060       -3.6489786892
 H         -1.1395241966        3.5783450036       -1.8775602455
 H         -0.6371634304        2.1243434116        1.2558759327
 C          0.2453795791        3.7719477953        0.2648192053
 C          1.5017898155        4.3565200706        0.8367914889
 C          1.2852644874        4.3503591974       -0.6452524068
 H          1.0716631564        5.2902745088       -1.1331954648
 H          1.8563333559        3.6624859437       -1.2473716954
 H          1.4361708281        5.2953558917        1.3662517295
 H          2.2287829676        3.6716753822        1.2497604872
 H         -0.6573613844        4.3586581001        0.4042148473
