  62
        -98.93385973
 C         -1.7843137825       -0.9850551730        0.4165456515
 C         -2.3680023193        0.1562833743        1.0185866436
 C         -3.8297507675        0.3185429797        0.9005989188
 C         -4.5303759472       -0.6239820101        0.2434654251
 C         -6.0091659824       -0.6651667460       -0.0372485379
 C         -6.4262441621        0.2964685094       -1.1612351495
 C         -5.8021102497        1.6870799322       -1.0811566414
 H         -4.7144943844        1.5941390485       -1.0952757376
 H         -6.0918549803        2.2335937503       -1.9825848439
 C         -6.2243269039        2.5213795851        0.1259406997
 H         -7.3104980348        2.6369045828        0.1200344433
 H         -5.7843487142        3.5144704836        0.0030283789
 C         -5.7996092576        1.9824540833        1.4938465751
 H         -6.4425278235        1.1663011965        1.8124773190
 H         -5.9402827467        2.7892512363        2.2191959639
 C         -4.3353306424        1.5647570930        1.5864877460
 H         -3.7033105513        2.3855901541        1.2278626025
 H         -4.0727314670        1.4443575245        2.6446956392
 H         -7.5141328832        0.3824467632       -1.1554844525
 H         -6.1273184424       -0.1475066372       -2.1138382716
 H         -6.5676890689       -0.4633665984        0.8719250468
 H         -6.2397786902       -1.6859423497       -0.3500096284
 O         -3.9295147506       -1.7105536372       -0.3157480386
 C         -2.5613551168       -1.9252367732       -0.2607402685
 O         -2.1953758183       -2.9652346209       -0.8370139595
 O         -1.6915316511        1.0185893743        1.6441778239
 C         -0.2788322688       -1.1342564245        0.5500960265
 C          0.4219838056       -0.5188187798       -0.6338363022
 C          0.1114715889       -0.9093584596       -1.9338851272
 C          0.7538085990       -0.3280814109       -3.0110410748
 C          1.7183778402        0.6450868230       -2.8155159215
 C          2.0291270445        1.0489102158       -1.5221624910
 C          1.3832715679        0.4627353955       -0.4404610046
 H          1.6107361129        0.8074179402        0.5570677075
 N          2.9863375518        2.0453713358       -1.3049837787
 S          3.8944791644        2.1172044811        0.0875884824
 O          3.1058257351        2.6143187649        1.1865782165
 O          5.0397557294        2.9220951060       -0.2808217692
 C          4.4251785531        0.4469414187        0.4253543741
 C          4.3561083169       -0.0286022059        1.7190788126
 C          4.8073001991       -1.3111885057        1.9895494074
 C          5.3123697205       -2.0953439882        0.9641237425
 C          5.3731077083       -1.6044991844       -0.3310225657
 C          4.9311186379       -0.3203609382       -0.6054964385
 H          4.9759578788        0.0874318964       -1.6019491915
 H          5.7624819189       -2.2181685750       -1.1270918310
 H          5.6560541771       -3.0952740900        1.1754595447
 H          4.7562954814       -1.6940063708        2.9961938464
 H          3.9434829412        0.6095104257        2.4844740029
 H          3.4889748217        2.3599873192       -2.1205811450
 H          2.2172960526        1.1006221261       -3.6571875660
 H          0.5038304038       -0.6383138033       -4.0143826258
 H         -0.6390328462       -1.6701658318       -2.0857809347
 H         -0.0174873412       -0.5299246819        1.4336093688
 C          0.1598725456       -2.5654357832        0.8302554131
 C          0.9928753130       -3.3804622074       -0.1091901556
 C          1.5972119052       -2.8486988815        1.1529073518
 H          1.8231457856       -3.5364187700        1.9532490512
 H          2.2916232417       -2.0262461149        1.0656488013
 H          0.7728553584       -4.4346185975       -0.1788768906
 H          1.2945531150       -2.9365805330       -1.0441194970
 H         -0.5837879879       -3.1100434259        1.4028182103
