  62
        -98.94114232
 C         -1.8738204304       -1.2800039769        0.1616671548
 C         -3.1197468519       -0.8883391239        0.7145947620
 C         -3.8693251081        0.1366356835       -0.0240153040
 C         -3.3331194370        0.6653377187       -1.1388213832
 C         -3.9581466991        1.7571710877       -1.9570731826
 C         -3.5047186422        3.1432566971       -1.4774136207
 C         -3.6260503038        3.3455803687        0.0331151932
 H         -2.9273384255        2.6763266554        0.5411453835
 H         -3.3061026919        4.3668614881        0.2517403118
 C         -5.0377011459        3.1202492452        0.5928016555
 H         -5.2727240635        3.9302232322        1.2865310284
 H         -5.7681443944        3.1646483377       -0.2158092817
 C         -5.2125785207        1.8095297553        1.3621624893
 H         -6.1681578331        1.8511445823        1.8915755511
 H         -4.4263443089        1.7190813259        2.1162770148
 C         -5.2160827472        0.5323117626        0.5127795777
 H         -5.5360721261       -0.2920361909        1.1569550754
 H         -5.9388297657        0.6337625672       -0.2996003602
 H         -2.4581868705        3.2837939868       -1.7584517150
 H         -4.0984271598        3.8989274387       -1.9948332098
 H         -3.6543404270        1.6256612174       -2.9969379893
 H         -5.0415750030        1.6762389519       -1.8924809915
 O         -2.1214918089        0.2933167152       -1.6208413040
 C         -1.3584934161       -0.6879253182       -0.9926272166
 O         -0.2717560953       -0.9097664310       -1.5535089024
 O         -3.5813882363       -1.3719972450        1.7830197782
 C         -1.0883790741       -2.3473256604        0.9006584319
 C          0.3651344853       -1.9663327374        1.0525860784
 C          1.4110506496       -2.8679630136        0.8986966141
 C          2.7226375170       -2.4660069744        1.0865301194
 C          3.0258283587       -1.1561478016        1.4056144883
 C          1.9897679275       -0.2390861580        1.5330837387
 C          0.6756426437       -0.6534565252        1.3848584618
 H         -0.1256912594        0.0659532948        1.5038424640
 N          2.2848164650        1.1079193977        1.7966569702
 S          3.6011711904        1.7998111991        1.0277185514
 O          4.7868667271        1.5673664660        1.8168624881
 O          3.2391123189        3.1896329089        0.8468529332
 C          3.7801776546        0.9875562862       -0.5527149399
 C          5.0346899845        0.5590334964       -0.9399110186
 C          5.1806643109       -0.0723650106       -2.1642069465
 C          4.0727248317       -0.2736162528       -2.9731906453
 C          2.8204439178        0.1639674563       -2.5715043394
 C          2.6712374917        0.8076074616       -1.3540480415
 H          1.6985384071        1.1401901316       -1.0285578603
 H          1.9466520200       -0.0083851107       -3.1788839417
 H          4.1827240861       -0.7775056367       -3.9204816756
 H          6.1540789723       -0.4127188684       -2.4788976723
 H          5.8647256555        0.7201149537       -0.2710459538
 H          1.4831357679        1.7199100509        1.7636895487
 H          4.0418463013       -0.8274176367        1.5541809363
 H          3.5216203752       -3.1823397885        0.9733899949
 H          1.2049512956       -3.8882323625        0.6222862817
 H         -1.5325822512       -2.3560700610        1.9112368440
 C         -1.2805326046       -3.7496134750        0.3358046953
 C         -2.4044013111       -4.0726093803       -0.6018812458
 C         -0.9924831947       -4.0632714123       -1.1011263671
 H         -0.5269564799       -5.0081903038       -1.3396757330
 H         -0.6768222287       -3.2456700267       -1.7298147439
 H         -2.9068101263       -5.0215163949       -0.4862053444
 H         -3.0598563091       -3.2683053741       -0.9036839451
 H         -1.0380347268       -4.5199951229        1.0609071208
