  62
        -98.94472429
 C          2.0128544770        1.3702603114        0.3016548425
 C          2.6467079483        0.7574173788       -0.8063355966
 C          3.7968423172       -0.1019550799       -0.4887842523
 C          4.1779835451       -0.2494997571        0.7931341300
 C          5.2923286338       -1.1399046744        1.2598447821
 C          4.7729958720       -2.5428352754        1.6049309887
 C          3.8840948764       -3.1565095007        0.5227785896
 H          2.9637621522       -2.5729819603        0.4410619692
 H          3.6002003715       -4.1552471214        0.8621053773
 C          4.5430687521       -3.2545579562       -0.8602349081
 H          4.3343680842       -4.2419289966       -1.2775356164
 H          5.6256447265       -3.1668302971       -0.7613432970
 C          4.0419251491       -2.2265892230       -1.8766209406
 H          2.9492594629       -2.2470957301       -1.9115305686
 H          4.4050282142       -2.5215449637       -2.8647123437
 C          4.4895822897       -0.7789487874       -1.6374853514
 H          4.2276608306       -0.2001609636       -2.5280013415
 H          5.5734982817       -0.7447615715       -1.5108470233
 H          4.1933462321       -2.4803970034        2.5290022700
 H          5.6299689913       -3.1941002716        1.7856415206
 H          6.0506206753       -1.2028363631        0.4820235890
 H          5.7361950384       -0.6970370249        2.1530198879
 O          3.5475177331        0.3611523409        1.8292161046
 C          2.4420039354        1.1685817330        1.6125659910
 O          1.9330673247        1.6356248159        2.6524374674
 H         -0.0575502967       -0.1597182640        0.7575958531
 C         -0.6078219211        0.2165955848       -0.0967049268
 C         -0.2938301016        1.4735831653       -0.6002195155
 C         -1.0208764380        1.9521861017       -1.6816494679
 C         -2.0081076709        1.1740156652       -2.2627754523
 C         -2.2987596998       -0.0864168868       -1.7758974498
 C         -1.5928843807       -0.5655489498       -0.6787672280
 N         -1.8937149030       -1.8366724420       -0.1614149672
 S         -3.5059678653       -2.2503124998        0.0145172504
 O         -3.5354144235       -3.2009293049        1.1040398168
 O         -4.0256364215       -2.7226498554       -1.2445892420
 C         -4.3339798766       -0.7388655532        0.4772269401
 C         -5.3413130747       -0.2339193533       -0.3193457970
 C         -5.9515878617        0.9556559852        0.0450778924
 C         -5.5425409339        1.6184225253        1.1915925640
 C         -4.5311136439        1.0964746510        1.9837063269
 C         -3.9195597909       -0.0937911969        1.6257109932
 H         -3.1330859495       -0.5262118076        2.2238548604
 H         -4.2130436187        1.6126659450        2.8754161148
 H         -6.0138461013        2.5470639773        1.4720953229
 H         -6.7397271905        1.3627449419       -0.5674682444
 H         -5.6249345914       -0.7800128139       -1.2042440165
 H         -1.3575937353       -2.0874544722        0.6557239452
 H         -3.0495549826       -0.7117477424       -2.2310188218
 H         -2.5558258509        1.5533762230       -3.1116589678
 H         -0.8073742384        2.9305082108       -2.0789025974
 C          0.8013705393        2.2583245427        0.0815414450
 H          0.4448986717        2.5391962727        1.0834939325
 C          1.2012461875        3.5155309134       -0.6619977128
 C          0.4466237971        4.7920055860       -0.4469229923
 C          1.8303951605        4.6371705879        0.1066108752
 H          2.6372487802        5.1883486710       -0.3526064971
 H          1.9464258228        4.5030260935        1.1725613335
 H         -0.3800125217        4.7736574719        0.2469040326
 H          0.3048378575        5.4553681805       -1.2866892967
 H          1.5905349392        3.3073623750       -1.6518023812
 O          2.2724458343        0.9156049462       -1.9968602462
