  62
        -98.94043403
 C         -2.0469677694       -0.4574021095        0.1085261604
 C         -2.7178989293        0.7238380604        0.5181620806
 C         -4.0608394994        0.9352676605       -0.0301184991
 C         -4.5733150396        0.0407709906       -0.8943080791
 C         -5.9176636897        0.1247141606       -1.5648925789
 C         -7.0776862596       -0.4026602594       -0.7094327187
 C         -7.4814602393        0.4928668405        0.4625310815
 H         -7.6502887794        1.5078117305        0.1012482616
 H         -8.4357191193        0.1181570704        0.8381816916
 C         -6.4715718291        0.5168543204        1.6184093113
 H         -5.7939134092       -0.3351321196        1.5275831811
 H         -7.0011871590        0.4047196603        2.5671633114
 C         -5.6435420491        1.7986144703        1.7107565912
 H         -4.9382626890        1.6924419103        2.5389930211
 H         -6.2990693991        2.6434803003        1.9335504014
 C         -4.8405519093        2.1241140805        0.4445231311
 H         -5.5060711595        2.4808577405       -0.3414987487
 H         -4.1263618893        2.9157893404        0.6843347510
 H         -6.8137682695       -1.3947936895       -0.3360099588
 H         -7.9425025897       -0.5147627494       -1.3674571286
 H         -5.8522076099       -0.4844691793       -2.4690205289
 H         -6.1179397798        1.1565475007       -1.8553426587
 O         -3.8917434297       -1.0664634094       -1.2837244794
 C         -2.6208971496       -1.3538151395       -0.7943294196
 O         -2.1438857997       -2.4106336094       -1.2442424998
 O         -2.2124226792        1.5617371104        1.3132155306
 C         -0.6634175593       -0.6817240196        0.6912649001
 C          0.3927181405       -0.0658882995       -0.1900009301
 C          0.4528917103       -0.3521837794       -1.5502228201
 C          1.4348312101        0.2126035806       -2.3437157502
 C          2.3784707202        1.0658113806       -1.7984699003
 C          2.3302695605        1.3533632305       -0.4413716803
 C          1.3407399806        0.7887088604        0.3530510198
 H          1.2980252208        1.0304558003        1.4064222299
 N          3.3149145806        2.1918465704        0.1195702896
 S          4.8977778106        1.6609030004       -0.0630264908
 O          5.6467878408        2.3113415103        0.9876907092
 O          5.3342136303        1.9190702405       -1.4111203208
 C          4.7895879706       -0.0951226096        0.2272202991
 C          4.7161454604       -0.9631299795       -0.8432954610
 C          4.5193397504       -2.3127209795       -0.5977126610
 C          4.3991976207       -2.7684337796        0.7055544689
 C          4.4857958909       -1.8849548297        1.7707683090
 C          4.6757656208       -0.5337482797        1.5317701991
 H          4.7493865010        0.1841387102        2.3332474191
 H          4.3965137911       -2.2442884398        2.7833840790
 H          4.2337413807       -3.8172067797        0.8930109689
 H          4.4527865203       -3.0025224595       -1.4235767311
 H          4.8168606202       -0.5704543094       -1.8415053209
 H          3.1376132808        2.4251513003        1.0864180896
 H          3.1541974101        1.5102483506       -2.4009582104
 H          1.4668915099       -0.0149373093       -3.3984870103
 H         -0.2754234498       -1.0264333594       -1.9749109200
 H         -0.6688975091       -0.1181402097        1.6378763501
 C         -0.3690614593       -2.1369866896        1.0303677599
 C          0.6793568106       -2.9533859096        0.3413335796
 C          0.9006328209       -2.4898503297        1.7474951596
 H          0.8590318310       -3.2126009498        2.5478029696
 H          1.6191112309       -1.6982397997        1.8999398496
 H          0.4589554406       -3.9943447896        0.1625118796
 H          1.2574366005       -2.4900207195       -0.4424614804
 H         -1.2638200492       -2.6690201997        1.3358456300
