  62
        -98.94014803
 C          2.4301638280       -0.9724426097       -0.0343683031
 C          3.6854225571       -0.9024724008       -0.6932849899
 C          4.7034538311       -0.0554379526       -0.0632884294
 C          4.4093558696        0.6074969403        1.0694618031
 C          5.3450219192        1.4930139546        1.8467987757
 C          5.4268623560        2.9313713711        1.3175781195
 C          6.1842597535        3.0975076803       -0.0004601289
 H          7.1619817218        2.6215089748        0.0809349514
 H          6.3535036330        4.1670877670       -0.1398436520
 C          5.4440591701        2.5513178739       -1.2294563373
 H          5.4935849056        3.2827822286       -2.0392348427
 H          4.3875786628        2.4138975881       -0.9872743058
 C          6.0022931706        1.2361392361       -1.7732889125
 H          7.0181923928        1.3936639497       -2.1423424231
 H          5.3824032962        0.9233431159       -2.6174132824
 C          6.0260126102        0.0899517388       -0.7536230833
 H          6.8196853139        0.2515481560       -0.0243554620
 H          6.2265008955       -0.8411528655       -1.2894946473
 H          5.9311284403        3.5302006170        2.0795456518
 H          4.4121905815        3.3206765722        1.2065593693
 H          6.3418323294        1.0511155486        1.8596840275
 H          4.9647885598        1.5240577018        2.8701601066
 O          3.1906441445        0.5289935916        1.6630619780
 C          2.1642394853       -0.2402676958        1.1242360655
 O          1.1048674376       -0.1788287081        1.7740559764
 O          3.9429438388       -1.5218645359       -1.7595683646
 C          1.3557616707       -1.8321478264       -0.6771882187
 C          0.0693222018       -1.0567267702       -0.7992361399
 C         -0.0211249493       -0.0444435692       -1.7503940980
 C         -1.1775585936        0.7001280056       -1.8826016381
 C         -2.2673966020        0.4555682967       -1.0654551478
 C         -2.1872763928       -0.5498759608       -0.1121853490
 C         -1.0278251343       -1.3052256539        0.0094576958
 H         -0.9712239747       -2.0712569174        0.7673060281
 N         -3.2792246983       -0.7859267668        0.7375700308
 S         -4.8146859379       -0.9115600422        0.0832293260
 O         -5.5716522388       -1.6903613259        1.0391932507
 O         -4.7749937703       -1.4211766324       -1.2682863889
 C         -5.4265581804        0.7605411826        0.0868008038
 C         -5.9474063161        1.3055503413       -1.0703219972
 C         -6.4333646951        2.6035344077       -1.0404162419
 C         -6.3912238259        3.3289682532        0.1402247044
 C         -5.8663355022        2.7663815464        1.2943054462
 C         -5.3799352736        1.4690891129        1.2713356609
 H         -4.9652944074        0.9967820097        2.1463701743
 H         -5.8339403860        3.3339087312        2.2104463128
 H         -6.7692035874        4.3389582179        0.1615276299
 H         -6.8414652725        3.0428299783       -1.9364887139
 H         -5.9542359479        0.7060146474       -1.9666878565
 H         -3.1116422652       -1.4934070591        1.4373372521
 H         -3.1712028224        1.0354335269       -1.1586640390
 H         -1.2318552953        1.4814417572       -2.6255442124
 H          0.8329138514        0.1541836261       -2.3837043367
 H          1.7345350111       -2.0200132424       -1.6955456989
 C          1.1709787582       -3.1978816924       -0.0324787632
 C          2.3456624088       -3.9448677932        0.5226699209
 C          1.2829202170       -3.4291179853        1.4436471980
 H          0.6120075790       -4.1432438588        1.8996407694
 H          1.5093604438       -2.5824017481        2.0722258500
 H          2.4086253349       -5.0087471182        0.3504492204
 H          3.3020519387       -3.4426799822        0.5154994811
 H          0.4288753448       -3.7907796844       -0.5599559745
