  62
        -98.94438669
 C         -2.3639526215        1.1348471472       -0.2365125210
 C         -2.3819073028       -0.1508265355        0.3568748868
 C         -3.3897419053       -1.0809861686       -0.1699905895
 C         -4.1973194619       -0.6998420850       -1.1758291637
 C         -5.2563103212       -1.5428773229       -1.8329423249
 C         -6.5967488791       -1.5577825786       -1.0853195102
 C         -6.6079406097       -2.3614633781        0.2155948503
 H         -7.6519333486       -2.4694866575        0.5162099243
 H         -6.2184292033       -3.3622864141        0.0265760239
 C         -5.8280311062       -1.7126408852        1.3675827514
 H         -5.6577920218       -0.6571805663        1.1433650342
 H         -6.4258060179       -1.7537921114        2.2808779766
 C         -4.4849280187       -2.3745872392        1.6760710413
 H         -4.0023806444       -1.8136602019        2.4805339340
 H         -4.6507483920       -3.3945570495        2.0301120514
 C         -3.5169750241       -2.4226506448        0.4865174813
 H         -3.8449488852       -3.1702527018       -0.2355591968
 H         -2.5282914188       -2.7063239789        0.8568291539
 H         -6.8930549176       -0.5267841088       -0.8792380685
 H         -7.3401909521       -1.9889576570       -1.7596172821
 H         -4.8914102406       -2.5637729690       -1.9498094003
 H         -5.4201819175       -1.1165861346       -2.8249748705
 O         -4.1249580554        0.5338369211       -1.7421992811
 C         -3.2208738737        1.4771330599       -1.2856171886
 O         -3.2731592737        2.5685228467       -1.8869510465
 O         -1.6085676975       -0.5148508543        1.2819615359
 C         -1.3733774635        2.1989450214        0.2109545780
 C          0.0096124227        1.7495555218       -0.1928555201
 C          0.4207833592        1.9312449679       -1.5107123854
 C          1.6545991316        1.4747742598       -1.9333193793
 C          2.5006122323        0.8188512535       -1.0550935451
 C          2.0916614414        0.6164751014        0.2553692297
 C          0.8601508651        1.0963417038        0.6840409813
 H          0.5508320127        0.9214698415        1.7020256838
 N          2.9370047531       -0.0532246960        1.1552591833
 S          3.7193444629       -1.4468129588        0.6465640449
 O          2.9673280071       -2.1536819893       -0.3644308278
 O          4.0120196096       -2.1783080852        1.8601342071
 C          5.2470910558       -0.8388105313       -0.0401227131
 C          6.0065428690        0.0268607418        0.7225765866
 C          7.2015344909        0.5014517738        0.2061327136
 C          7.6170067649        0.1024035255       -1.0555511966
 C          6.8457414839       -0.7706857565       -1.8070941320
 C          5.6486030715       -1.2483083471       -1.2965046844
 H          5.0129845659       -1.9230986271       -1.8478583127
 H          7.1701274774       -1.0807009431       -2.7874929115
 H          8.5470082182        0.4741191094       -1.4557941581
 H          7.8037652783        1.1808657506        0.7875553437
 H          5.6495674697        0.3115355568        1.6980989606
 H          2.5255273326       -0.1872040505        2.0679278242
 H          3.4584994418        0.4488159379       -1.3819584221
 H          1.9618147582        1.6266985640       -2.9569488068
 H         -0.2496092483        2.4239515704       -2.2015888848
 H         -1.6195822867        3.0996964403       -0.3666694011
 C         -1.5137736927        2.5137403387        1.6854783758
 C         -0.8873415777        3.7607111735        2.2310609477
 C         -2.3775102691        3.6623907180        2.1076585604
 H         -2.9651865614        3.5604430931        3.0077743398
 H         -2.8661783077        4.2318624223        1.3305181821
 H         -0.4503553401        3.7305987775        3.2174544606
 H         -0.3624398867        4.3977515344        1.5354795222
 H         -1.5252361044        1.6326146804        2.3148697161
