  62
        -98.94386863
 C         -2.1013958991       -0.8114627111       -0.0113041186
 C         -2.5408412593        0.5311647488       -0.0980519504
 C         -3.8635561394        0.8080181693        0.4817314091
 C         -4.5474759693       -0.1883983600        1.0732435704
 C         -5.9235329994       -0.0565977695        1.6573431901
 C         -7.0011197792       -0.3898230410        0.6161408404
 C         -6.8128732292        0.3317101173       -0.7183408705
 H         -5.8995055791       -0.0320539732       -1.1945497900
 H         -7.6469227591        0.0463446563       -1.3630929402
 C         -6.7512670195        1.8616920174       -0.6092636325
 H         -7.3758041495        2.2941517163       -1.3938652331
 H         -7.1657421696        2.1821137686        0.3472463970
 C         -5.3507989195        2.4541850174       -0.7781623631
 H         -4.8952353294        2.0624018663       -1.6911606226
 H         -5.4520446997        3.5357722673       -0.9018272445
 C         -4.3794830896        2.2161455191        0.3851938073
 H         -4.8470628797        2.5219378902        1.3234020568
 H         -3.5001036897        2.8456666690        0.2191102365
 H         -6.9809346090       -1.4660054112        0.4293744618
 H         -7.9764960493       -0.1359659606        1.0350968900
 H         -6.0107887294       -0.7528720784        2.4931441909
 H         -6.0607467096        0.9577884010        2.0266677487
 O         -4.0766318891       -1.4582513699        1.1654691420
 C         -2.8516118590       -1.8038598804        0.6198411726
 O         -2.5422064288       -3.0037298701        0.7646869142
 O         -1.8689001794        1.4509062782       -0.6340608715
 C         -0.7591489390       -1.2117367616       -0.5983889580
 C          0.3431080208       -0.4312788206        0.0752336411
 C          0.4456717307       -0.4880112688        1.4630746312
 C          1.4334467405        0.2102727222        2.1298080204
 C          2.3458936205        0.9784869315        1.4274734595
 C          2.2602121806        1.0321593597        0.0434585094
 C          1.2697127608        0.3230060987       -0.6259132597
 H          1.2162518409        0.3817824373       -1.7015125998
 N          3.1941325606        1.7955098589       -0.6757353715
 S          4.8082687205        1.6605862097       -0.2599942211
 O          5.0853467603        2.4705517012        0.8998113278
 O          5.5377553206        2.0051468882       -1.4599121915
 C          5.0343439108       -0.0644087098        0.1380152011
 C          5.3852884907       -0.4371568681        1.4192043916
 C          5.5147043709       -1.7851635677        1.7136440434
 C          5.2878150611       -2.7321524690        0.7274555046
 C          4.9397283212       -2.3415827007       -0.5567610760
 C          4.8097427310       -0.9956535911       -0.8567853877
 H          4.5470512310       -0.6592073724       -1.8467446682
 H          4.7661801414       -3.0806386417       -1.3224203750
 H          5.3833360713       -3.7811955287        0.9594566460
 H          5.7872596008       -2.0918097363        2.7106444738
 H          5.5514255205        0.3311566429        2.1565802707
 H          3.0625893507        1.7771258176       -1.6760038715
 H          3.1127365403        1.5441577122        1.9311514189
 H          1.4935529904        0.1607589436        3.2064659005
 H         -0.2694518193       -1.0855320682        2.0123538919
 H         -0.6242159889       -2.2730166413       -0.3450483366
 C         -0.7819831589       -1.0703121236       -2.1057598381
 C          0.1362416513       -1.8996192545       -2.9513538270
 C         -1.3331015086       -2.1936978447       -2.9292264067
 H         -1.9222906186       -1.9531043359       -3.8015585671
 H         -1.6733739685       -3.0738104341       -2.4030952156
 H          0.5550411514       -1.4609116656       -3.8447073075
 H          0.7959230214       -2.5868062138       -2.4439175060
 H         -1.0064552890       -0.0598665640       -2.4281589295
