  62
        -98.94210042
 C          1.3376869969        1.2855625946        0.8205701571
 C          2.3083852470        0.8577965637       -0.1132217848
 C          2.9459820177       -0.4463641201        0.1452910529
 C          2.5357251352       -1.1883152134        1.1899827677
 C          2.9823233702       -2.5452395116        1.6933670764
 C          3.9019842250       -3.4247054043        0.8518368163
 C          3.2553705634       -3.9970310999       -0.4099032912
 H          4.0287743602       -4.5056553740       -0.9903889355
 H          2.5164706849       -4.7453317309       -0.1114475540
 C          2.5425353465       -2.9902518310       -1.3101862012
 H          2.1144673253       -3.5423213941       -2.1524625259
 H          1.7019339943       -2.5370537505       -0.7790447046
 C          3.4270092973       -1.8853537928       -1.8838560384
 H          4.2685010168       -2.3288634189       -2.4211412993
 H          2.8238501563       -1.3259740130       -2.6047387861
 C          3.9747359065       -0.8783737285       -0.8599410151
 H          4.8614938066       -1.2642525200       -0.3626771009
 H          4.2678137283        0.0250500925       -1.4033810562
 H          4.1905417621       -4.2691800923        1.4838297669
 H          4.8142943618       -2.8888456549        0.6067773858
 H          3.4652682900       -2.3600908785        2.6595553141
 H          2.0613686994       -3.0975143287        1.9083658124
 O          1.5788813837       -0.7413847310        2.0550603709
 C          0.9508235814        0.4791056648        1.8875406789
 O          0.0773553362        0.7274663128        2.7447970794
 H         -1.1109376591        0.6242947689        0.0742651674
 C         -1.0227151712        1.2728731105       -0.7836040585
 C         -0.2118732196        2.3985546664       -0.6947455262
 C         -0.1193718315        3.2410600622       -1.7927414970
 C         -0.7883403547        2.9279283605       -2.9647711336
 C         -1.5361086563        1.7702348414       -3.0710723443
 C         -1.6507729730        0.9295921109       -1.9672890220
 N         -2.4036814890       -0.2488522049       -2.0342324688
 S         -2.1325400529       -1.5492712278       -1.0180529847
 O         -0.7471450209       -1.6829515493       -0.6355923017
 O         -2.7038654975       -2.6719545191       -1.7339378982
 C         -3.1678999681       -1.1873189337        0.3837040033
 C         -2.6306020507       -1.0403099482        1.6453437735
 C         -3.4766978448       -0.7491424725        2.7048082763
 C         -4.8385050582       -0.6165476387        2.4860118762
 C         -5.3654166971       -0.7757604609        1.2124513741
 C         -4.5245625250       -1.0628048137        0.1506577413
 H         -4.8922866169       -1.2006591446       -0.8523805051
 H         -6.4257528785       -0.6743240037        1.0461997169
 H         -5.4913420849       -0.3882088059        3.3137089086
 H         -3.0564531732       -0.6191741754        3.6893634342
 H         -1.5650302554       -1.1362222318        1.7893389639
 H         -2.6974101752       -0.5277642542       -2.9578390453
 H         -2.0227340752        1.5111161065       -3.9988990098
 H         -0.7041422946        3.5842398706       -3.8178111952
 H          0.4916079221        4.1270739558       -1.7416346522
 C          0.5650466605        2.5750531730        0.5885899843
 H         -0.1500070870        2.6565485594        1.4198384358
 C          1.4769604744        3.7813072010        0.6004553995
 C          0.9205761583        5.1349238489        0.9224613286
 C          1.8027468749        4.4329533583        1.9094996735
 H          2.8045116102        4.8044941708        2.0643903068
 H          1.3499594526        4.0167104579        2.7977682644
 H          1.3177476520        5.9930771216        0.4018715108
 H         -0.1338655207        5.2014098095        1.1436749360
 H          2.2698935037        3.7130372880       -0.1346401689
 O          2.6429189365        1.5333634196       -1.1222150631
