  62
        -98.94008255
 C          2.6023671720        1.1600276580        0.2921919347
 C          2.5894892212        0.3373311584       -0.8616579062
 C          3.4881999614       -0.8280962006       -0.8269486123
 C          4.2392605764       -1.0562069964        0.2647979033
 C          5.1498223892       -2.2344231217        0.4515551392
 C          4.4151497339       -3.4012733947        1.1266335246
 C          3.0683533855       -3.7376863466        0.4858437896
 H          2.6560695650       -4.5926453097        1.0263937281
 H          2.3816004984       -2.9013293720        0.6378648606
 C          3.1416385893       -4.0657641401       -1.0120647986
 H          2.5324866126       -4.9510624308       -1.2059242622
 H          4.1678915341       -4.3123154785       -1.2866116666
 C          2.6233628709       -2.9578719936       -1.9311225488
 H          1.6300622495       -2.6414077066       -1.6021311411
 H          2.5176562699       -3.3730006844       -2.9368089791
 C          3.5122029219       -1.7126844703       -2.0416665249
 H          4.5348368870       -2.0096845779       -2.2825763916
 H          3.1266375832       -1.1031438244       -2.8640525987
 H          4.2406076105       -3.1413575594        2.1734976358
 H          5.0625983716       -4.2795137665        1.0987574566
 H          5.9843148339       -1.9276053060        1.0844093668
 H          5.5359986458       -2.5457533196       -0.5170040701
 O          4.2095970588       -0.2560233042        1.3619800691
 C          3.3791950133        0.8521302508        1.4112861935
 O          3.4155605007        1.4696990046        2.4951861029
 O          1.8714387907        0.5503998374       -1.8710293692
 C          1.7023464787        2.3784019079        0.4076804390
 C          0.3076956656        2.0327558180       -0.0565584181
 C         -0.3766798408        2.7300147907       -1.0422716847
 C         -1.6604278963        2.3561075174       -1.4008351106
 C         -2.2867541520        1.2852217430       -0.7914403242
 C         -1.6131178814        0.5821860263        0.1991570224
 C         -0.3329328135        0.9662441287        0.5640234164
 H          0.1914792132        0.4188428614        1.3396849770
 N         -2.2376230633       -0.5196829420        0.8140473360
 S         -3.7504259357       -0.2709271338        1.5017087890
 O         -3.9065747804        1.0929474818        1.9528139215
 O         -3.8810425445       -1.2997859012        2.5107708414
 C         -4.8879868491       -0.6101673148        0.1753616138
 C         -4.8118140870       -1.8397164497       -0.4490702317
 C         -5.6953717162       -2.1225928061       -1.4783341958
 C         -6.6363834949       -1.1781108905       -1.8610428360
 C         -6.7020266747        0.0503726819       -1.2216261626
 C         -5.8203136765        0.3402690004       -0.1918605130
 H         -5.8291295068        1.2837277174        0.3301845416
 H         -7.4341345651        0.7831333548       -1.5208588900
 H         -7.3225282853       -1.4012597163       -2.6627267215
 H         -5.6468717923       -3.0764583259       -1.9784829133
 H         -4.0679334546       -2.5459286852       -0.1196487542
 H         -1.6388414773       -1.0137702422        1.4599151635
 H         -3.2822098555        0.9858971171       -1.0761869901
 H         -2.1778279216        2.9031504824       -2.1741432420
 H          0.1015916382        3.5533478860       -1.5463443030
 H          1.6467162365        2.5870745738        1.4898244218
 C          2.2629965104        3.6347307242       -0.2422829907
 C          3.7403224989        3.8245033698       -0.4110097670
 C          2.8682760945        3.6274233357       -1.6125949132
 H          2.6872440899        4.4758964247       -2.2562324500
 H          2.9106368841        2.6842579571       -2.1330797370
 H          4.1541223493        4.8046737885       -0.2268811934
 H          4.3878211823        3.0145509135       -0.1071277119
 H          1.6979446338        4.5187773860        0.0373548002
