  62
        -98.94532965
 C         -2.1389799035       -0.8784685308        0.0526759238
 C         -2.8824866135       -0.2644161797        1.0880274106
 C         -3.6029097449        0.9593476579        0.7192923437
 C         -3.4867208461        1.4513945097       -0.5277607854
 C         -4.1354503708        2.7058167957       -1.0473282306
 C         -5.5817017625        2.5099996023       -1.5228951309
 C         -6.6107248735        2.3067819505       -0.4100454917
 H         -6.5127846805        3.1073915930        0.3237908433
 H         -7.5979876937        2.4019779367       -0.8662989902
 C         -6.5216279636        0.9455875515        0.2939582121
 H         -5.9403651544        0.2550151620       -0.3213512634
 H         -7.5229652209        0.5207825343        0.3930654889
 C         -5.9103940040        0.9944502775        1.6942493439
 H         -5.8621783438       -0.0260022966        2.0826217856
 H         -6.5553477602        1.5766971516        2.3559724429
 C         -4.4963885745        1.5879041670        1.7458936568
 H         -4.5357326793        2.6681537367        1.6066927892
 H         -4.0711586077        1.3767127216        2.7302646882
 H         -5.8609389799        3.4016199389       -2.0889497337
 H         -5.6111804704        1.6591847252       -2.2074643049
 H         -4.1048240372        3.4798791322       -0.2797483949
 H         -3.5340910380        3.0361885267       -1.8972652183
 O         -2.7235836579        0.8558042003       -1.4832087599
 C         -2.0471469506       -0.3291538000       -1.2265202950
 O         -1.4109367873       -0.7774811187       -2.1985971616
 O         -2.9327283450       -0.7114295543        2.2659673205
 C         -1.3820150453       -2.1600648428        0.3501991821
 C          0.0942383349       -1.9570106977        0.1118013859
 C          0.8857475296       -2.8466406387       -0.6020041885
 C          2.2316705601       -2.5866895461       -0.7960641704
 C          2.8179354362       -1.4459977833       -0.2801407797
 C          2.0367757275       -0.5517546845        0.4404494977
 C          0.6907812623       -0.8164688946        0.6359032910
 H          0.0829484461       -0.1148703357        1.1951525171
 N          2.6246228273        0.6064694681        0.9821913353
 S          3.5077834672        1.5932079194       -0.0534030643
 O          3.4548712599        2.9090274169        0.5471424187
 O          3.0431728600        1.4890216110       -1.4172024566
 C          5.1676453563        0.9623709455        0.0808818945
 C          5.8394733003        0.5450648784       -1.0512938816
 C          7.1321024960        0.0606796702       -0.9227472636
 C          7.7265437434        0.0036561875        0.3285270687
 C          7.0390465969        0.4296265148        1.4554083650
 C          5.7470664110        0.9155044424        1.3338449563
 H          5.1795531745        1.2598698290        2.1821532474
 H          7.5047072274        0.3842268029        2.4266628045
 H          8.7318260557       -0.3747312417        0.4258231884
 H          7.6678376108       -0.2704942280       -1.7978043482
 H          5.3339084452        0.6031576920       -2.0022412761
 H          1.9816133175        1.1631325748        1.5272623421
 H          3.8637226545       -1.2373452457       -0.4354812990
 H          2.8328925260       -3.2833495617       -1.3600326414
 H          0.4471751837       -3.7389561636       -1.0171329164
 H         -1.5323175488       -2.3445263148        1.4247173749
 C         -1.9716344962       -3.3164497170       -0.4293391293
 C         -1.8934123721       -4.7117150769        0.1122997235
 C         -3.2046273636       -3.9869937421        0.0955009980
 H         -3.9610765980       -4.2996423730       -0.6086096699
 H         -3.6037972970       -3.6260921612        1.0322982444
 H         -1.7514525472       -5.5266198783       -0.5813142806
 H         -1.4047495355       -4.8511601363        1.0645597569
 H         -1.8967423639       -3.1748264572       -1.5017948546
