  62
        -98.94271565
 C         -1.2644594319       -1.6275678476        0.2095829329
 C         -1.6379975211       -0.6301676433        1.1399077119
 C         -2.8782360453        0.1089995967        0.8551885987
 C         -3.5740675799       -0.1808981415       -0.2578065692
 C         -4.8939805938        0.3819383805       -0.7255569836
 C         -5.1390827575        1.8845089798       -0.5489399558
 C         -3.9021183750        2.7698545221       -0.7587262366
 H         -3.0860427353        2.1872731265       -1.1913126746
 H         -4.1462731401        3.5616887407       -1.4696730416
 C         -3.4114944528        3.4297811870        0.5313797231
 H         -2.7896226674        4.2890542557        0.2684767627
 H         -4.2731746087        3.8020513090        1.0908307551
 C         -2.5700199736        2.5301208457        1.4343048304
 H         -2.3355559415        3.0901167370        2.3434236548
 H         -1.6198251773        2.3146276740        0.9361246332
 C         -3.2266074616        1.1960128094        1.8308107588
 H         -2.8059105581        0.8847483829        2.7910166375
 H         -4.3023245126        1.3075473530        1.9453631865
 H         -5.5497848013        2.0752719252        0.4414505560
 H         -5.9115507549        2.1623980733       -1.2683044772
 H         -5.6921182518       -0.1709285573       -0.2204705618
 H         -4.9495245956        0.1268494060       -1.7868638167
 O         -3.1588331988       -1.1283231604       -1.1468807281
 C         -1.9895988545       -1.8487136754       -0.9592457067
 O         -1.7210432330       -2.6390362580       -1.8843897889
 O         -0.9660607503       -0.3741884910        2.1760497513
 C          0.0229335011       -2.3968212102        0.4382398449
 C          1.0617056918       -1.9907977883       -0.5799910919
 C          1.9567849101       -2.8770022618       -1.1659871768
 C          2.9023211615       -2.4189327261       -2.0679464748
 C          2.9964854266       -1.0755148873       -2.3842702618
 C          2.1078942413       -0.1804758797       -1.7993329236
 C          1.1505475416       -0.6469294916       -0.9143672555
 H          0.4486888531        0.0536141044       -0.4908571122
 N          2.1573259244        1.1933174397       -2.0786105557
 S          1.8160016403        2.2866607259       -0.8574302938
 O          0.3983663909        2.3351889056       -0.6053986752
 O          2.4152273115        3.5233666198       -1.3139119780
 C          2.7137280378        1.6738067214        0.5573329721
 C          2.0635136327        1.0989415344        1.6293896246
 C          2.8214405153        0.5882016768        2.6726678262
 C          4.2042710169        0.6595791894        2.6286105181
 C          4.8427214256        1.2491748653        1.5474885489
 C          4.0925278350        1.7584623469        0.5014506894
 H          4.5498713179        2.2345071618       -0.3508336884
 H          5.9186275090        1.3092683375        1.5164359723
 H          4.7863623492        0.2556618604        3.4418893118
 H          2.3155681903        0.1320611749        3.5087981389
 H          0.9860683814        1.0419618274        1.6484761127
 H          2.9384497765        1.4889137588       -2.6448752544
 H          3.7399553850       -0.7220980713       -3.0819788760
 H          3.5847005073       -3.1191736823       -2.5251540459
 H          1.9090946486       -3.9258816621       -0.9235315408
 H          0.3852171291       -2.0656665378        1.4241895229
 C         -0.2277952334       -3.8886174993        0.4892337601
 C          0.6334220467       -4.7697809548        1.3428160199
 C         -0.7806253606       -4.4854839205        1.7479053605
 H         -1.5131365925       -5.2742497426        1.6655526463
 H         -0.9515682964       -3.8178316601        2.5798725551
 H          0.8719964205       -5.7598245894        0.9845471965
 H          1.4245348129       -4.3006274439        1.9078824980
 H         -0.5928375462       -4.2819276775       -0.4524473369
