  62
        -98.94598131
 C          1.7429480683        1.2144342659       -0.2904177203
 C          3.0810557549        1.3059890435        0.1644352504
 C          3.9936604875        0.2554369329       -0.3056029763
 C          3.5278006294       -0.6995324712       -1.1313090703
 C          4.3327931812       -1.8572817622       -1.6449141148
 C          4.2072184150       -3.0753128978       -0.7190384469
 C          4.4368835683       -2.7536243493        0.7576110956
 H          3.6347593364       -2.1007645260        1.1094095674
 H          4.3544378623       -3.6911810181        1.3115484060
 C          5.7920969339       -2.0991825084        1.0603021968
 H          6.4781942738       -2.2657570517        0.2290817850
 H          6.2252694072       -2.5814668382        1.9391445567
 C          5.7208225217       -0.6016173403        1.3651826207
 H          4.9665907767       -0.4200555598        2.1350337330
 H          6.6861519319       -0.2921296360        1.7745057349
 C          5.4183502786        0.3109369092        0.1695677878
 H          5.5881057344        1.3435189197        0.4884177288
 H          6.1067870515        0.0871683800       -0.6478209282
 H          3.2026798822       -3.4903084389       -0.8271447123
 H          4.9238231832       -3.8314443261       -1.0447008409
 H          5.3756028260       -1.5583699085       -1.7307881297
 H          3.9583195363       -2.1236550830       -2.6347665685
 O          2.2405503570       -0.7463234866       -1.5582021461
 C          1.3133591224        0.1974455907       -1.1413944123
 O          0.1674184750        0.0195709773       -1.5948413809
 O          3.4901474634        2.2196567289        0.9299169949
 C          0.7387537175        2.2534826502        0.1783801623
 C         -0.3255564565        1.5778662830        1.0073977787
 C          0.0604979189        0.9456000371        2.1881756129
 C         -0.8663811107        0.3035693336        2.9847747807
 C         -2.2002477262        0.2697874942        2.6148681419
 C         -2.5964250320        0.8955753251        1.4401785633
 C         -1.6632575069        1.5520466485        0.6467182584
 H         -2.0012631296        2.0198029533       -0.2622798692
 N         -3.9501756750        0.8950538430        1.0501306859
 S         -4.3710533410        0.2385032864       -0.4333617044
 O         -3.7606209749        0.9916109438       -1.4960744874
 O         -5.8183076271        0.2106117179       -0.4197356205
 C         -3.7471306792       -1.4312034727       -0.3634510311
 C         -2.4184074384       -1.6768918235       -0.6438121882
 C         -1.9387752279       -2.9702419387       -0.4983135039
 C         -2.7836501020       -3.9852933181       -0.0782262807
 C         -4.1168432018       -3.7197512898        0.1972569224
 C         -4.6033587291       -2.4304857493        0.0594116848
 H         -5.6326832533       -2.1782300300        0.2576202043
 H         -4.7741114338       -4.5108609357        0.5204976303
 H         -2.4005367532       -4.9875879051        0.0327069464
 H         -0.9008595210       -3.1671972002       -0.7168018800
 H         -1.7738829017       -0.8777995931       -0.9760504165
 H         -4.5714816437        0.5270663940        1.7576812106
 H         -2.9289429827       -0.2326157590        3.2329947441
 H         -0.5507348082       -0.1778475002        3.8978940330
 H          1.1039535912        0.9703890282        2.4716651089
 H          1.3059974958        2.9265977941        0.8379634179
 C          0.1963792628        3.0584733466       -0.9822249385
 C         -0.3717622931        4.4232970092       -0.7373283021
 C          0.9442903429        4.2737544352       -1.4383017099
 H          0.9933359120        4.4816777145       -2.4966935378
 H          1.8434324291        4.5357989908       -0.8997164203
 H         -1.2308383579        4.7330200068       -1.3132338741
 H         -0.3667920532        4.7910538839        0.2776935579
 H         -0.2684729348        2.4454150709       -1.7463430635
