  62
        -98.94702594
 C         -2.2057153804       -0.7539842571       -0.4977280341
 C         -1.4738354269        0.2612768619       -1.1586036636
 C         -1.9303874752        1.6408145253       -0.9326336671
 C         -2.9758363730        1.8710918998       -0.1199976909
 C         -3.5102448768        3.2273500448        0.2364574500
 C         -2.8483932037        3.7750740380        1.5080318247
 C         -1.3210690851        3.7000087307        1.4979929555
 H         -0.9675468814        4.1602070176        2.4238899972
 H         -1.0039617844        2.6541260480        1.5260359415
 C         -0.6564890594        4.3905503848        0.2989611987
 H         -1.3556302484        5.0880733740       -0.1650881090
 H          0.1938180309        4.9724353374        0.6611227887
 C         -0.1167616929        3.4231270725       -0.7560317899
 H          0.4762129936        2.6520311911       -0.2575105326
 H          0.5508282649        3.9781474826       -1.4211050298
 C         -1.1762231580        2.7383301395       -1.6296989256
 H         -1.8652151526        3.4864714154       -2.0278481431
 H         -0.6614846418        2.2642266557       -2.4703885487
 H         -3.1606300987        4.8132930265        1.6381966866
 H         -3.2121782336        3.2008915452        2.3634657187
 H         -3.3408040956        3.9085302701       -0.5952675080
 H         -4.5845266674        3.1376839489        0.4081003898
 O         -3.6542245720        0.8747836491        0.5048444079
 C         -3.2791632778       -0.4468195586        0.3440879086
 O         -3.9818814313       -1.2560070866        0.9847840349
 H          0.5809569463       -1.1300450221       -0.2290775232
 C          0.3757455091       -1.8889684163        0.5060012904
 C         -0.8278684955       -2.5788029425        0.4627553177
 C         -1.0706353781       -3.5635130246        1.4123367991
 C         -0.1349064861       -3.8370954419        2.3941923001
 C          1.0404162910       -3.1124448706        2.4641705577
 C          1.2927943055       -2.1231095836        1.5187926386
 N          2.4697466239       -1.3632500177        1.5783897699
 S          2.4597981036        0.2999933583        1.3129524040
 O          3.3073620033        0.8414414601        2.3581069385
 O          1.1166976103        0.8193123314        1.2536453058
 C          3.3218224426        0.4687432302       -0.2369499895
 C          2.6369132157        0.5899645156       -1.4281341231
 C          3.3620426998        0.6949386279       -2.6063334491
 C          4.7470281261        0.6741017776       -2.5765654582
 C          5.4207022117        0.5506589536       -1.3703500420
 C          4.7037302561        0.4469358264       -0.1905850973
 H          5.1855960281        0.3645786773        0.7695686820
 H          6.4984883000        0.5352563195       -1.3469926458
 H          5.3031643132        0.7555123222       -3.4973096525
 H          2.8316819549        0.7888197713       -3.5406079066
 H          1.5576432269        0.5978273367       -1.4396162604
 H          3.0608067919       -1.5846853298        2.3667355939
 H          1.7574340798       -3.3033956556        3.2486716525
 H         -0.3325415207       -4.6057216399        3.1261292395
 H         -2.0078033960       -4.1001650498        1.3908077221
 C         -1.8651964427       -2.2352812542       -0.5807764875
 H         -2.7896247639       -2.7676258680       -0.3164362401
 C         -1.4262634956       -2.6973424857       -1.9558491869
 C         -1.5908653987       -4.1409191424       -2.3208715655
 C         -2.4626679207       -3.1018149279       -2.9585822925
 H         -2.2993505086       -2.8521121684       -3.9959658161
 H         -3.4985192797       -3.0483927402       -2.6554033333
 H         -0.8262698852       -4.6093868053       -2.9210887172
 H         -2.0380088702       -4.7959225245       -1.5884281277
 H         -0.5519902694       -2.1798018264       -2.3261262220
 O         -0.4883242958        0.0546466036       -1.9161046982
