  62
        -98.94850216
 C          1.2253224812        1.5253830095        0.4883487263
 C          2.1416629056        1.1925938779       -0.5381053910
 C          3.1950246577        0.2364539249       -0.1695776953
 C          3.2364236482       -0.2529362139        1.0827659960
 C          4.2302308635       -1.2627784901        1.5776135648
 C          3.6980734196       -2.6941703674        1.4253672796
 C          3.1352930334       -3.0071941971        0.0384285959
 H          2.8410420306       -4.0596496159        0.0405473252
 H          2.2182051851       -2.4326360576       -0.1173204478
 C          4.1118124237       -2.7531054288       -1.1185156267
 H          5.1338982586       -2.7185312179       -0.7385509937
 H          4.0513329579       -3.5943883501       -1.8123115946
 C          3.8282046577       -1.4877455779       -1.9305366854
 H          2.7718344468       -1.4668940592       -2.2126083055
 H          4.4136155698       -1.5378223321       -2.8527842689
 C          4.1697745312       -0.1605410911       -1.2413036012
 H          5.1874820615       -0.2000686564       -0.8476491300
 H          4.1218021890        0.6289415199       -1.9971169968
 H          4.5083988052       -3.3889008046        1.6560788179
 H          2.8986466168       -2.8485052578        2.1540103845
 H          5.1603906871       -1.1497185384        1.0240646885
 H          4.4206215110       -1.0676635160        2.6346539021
 O          2.3430437127        0.0950872137        2.0435592399
 C          1.2968239050        0.9582565459        1.7594921099
 O          0.5089266967        1.1429941464        2.7107913804
 H         -0.4175508745       -0.1350744046       -0.2450279401
 C         -0.9710076305        0.4840488496       -0.9330473474
 C         -0.8190325974        1.8618413816       -0.8864847037
 C         -1.5178832791        2.6336116737       -1.8070500382
 C         -2.3320516457        2.0292775437       -2.7495352218
 C         -2.4852230568        0.6546341991       -2.7855197399
 C         -1.7926382126       -0.1251241236       -1.8667377631
 N         -1.9036908176       -1.5235432443       -1.8583873561
 S         -1.8493927765       -2.3465477834       -0.4040567035
 O         -0.5045852785       -2.3767774482        0.1127863110
 O         -2.4377244596       -3.6344753972       -0.7053334126
 C         -2.9366157600       -1.4275138878        0.6711846875
 C         -4.2892347709       -1.4781431421        0.3904650586
 C         -5.1662816669       -0.7367682203        1.1637038901
 C         -4.6783200114        0.0476259767        2.1985042109
 C         -3.3204545904        0.0835067584        2.4716152188
 C         -2.4378931118       -0.6607455441        1.7035463992
 H         -1.3774107751       -0.6412178092        1.9018669096
 H         -2.9286102852        0.6896501337        3.2730987136
 H         -5.3586215550        0.6318622488        2.7977618521
 H         -6.2237299563       -0.7683889285        0.9567455534
 H         -4.6297872068       -2.1079398955       -0.4152947731
 H         -2.5933853894       -1.9058286094       -2.4878809541
 H         -3.1220739221        0.1879808344       -3.5209892627
 H         -2.8620738651        2.6394696463       -3.4648857376
 H         -1.4183350060        3.7066439319       -1.7910604762
 C          0.0616998605        2.4515082114        0.1905845562
 H         -0.5325504691        2.5001985327        1.1160889471
 C          0.5579004788        3.8441537083       -0.1423074231
 C         -0.2438234752        5.0490055299        0.2464951909
 C          1.0263305609        4.7280565567        0.9733089126
 H          1.8913503626        5.3526522662        0.8087400100
 H          0.9578967115        4.3343573591        1.9773435264
 H         -0.2493100131        5.9003463346       -0.4174391892
 H         -1.1760647229        4.8853848674        0.7657407786
 H          1.1138478807        3.8741495999       -1.0720729951
 O          2.0832261768        1.6663316526       -1.7030733490
