  62
        -98.92866963
 C         -2.3146485592       -0.8855117483        0.2945313585
 C         -2.4528481149        0.5204373512        0.4211435308
 C         -3.6918116260        1.1141761492       -0.1016874970
 C         -4.6074344995        0.3113057026       -0.6732063885
 C         -5.9552793189        0.7422243607       -1.1779714246
 C         -6.9211136588        0.9405192017        0.0076981262
 C         -7.3806607048        2.3841894853        0.2119375515
 H         -8.1257292563        2.6302647543       -0.5474636468
 H         -7.8724297575        2.4361289233        1.1856033535
 C         -6.2818829744        3.4496343330        0.1514329603
 H         -6.7043746779        4.3662148626        0.5684899397
 H         -6.0361804874        3.6657867197       -0.8893013917
 C         -4.9850838870        3.1206618174        0.9024481621
 H         -5.1723119872        2.3996887307        1.6985994070
 H         -4.6272276989        4.0349896529        1.3803617781
 C         -3.8400086491        2.6064264346        0.0095960699
 H         -3.9334854712        3.0395015769       -0.9903863232
 H         -2.8888521247        2.9503761727        0.4273107843
 H         -7.8052121489        0.3174516860       -0.1349963300
 H         -6.4276135481        0.5828758945        0.9138414809
 H         -5.8564294147        1.6619709455       -1.7500791136
 H         -6.3208467718       -0.0439848697       -1.8386069326
 O         -4.4374390067       -1.0292137503       -0.7876639837
 C         -3.2944108477       -1.6678883178       -0.3181751030
 O         -3.2982668689       -2.8960405221       -0.5125865745
 H          1.5083562937       -0.6072328487        1.0148649584
 C          1.2997657998       -1.0667777848        0.0605040985
 C          0.0338050005       -1.5675228381       -0.2062892161
 C         -0.2155497088       -2.1340628414       -1.4528044625
 C          0.7841432224       -2.1920789639       -2.4061997366
 C          2.0433865624       -1.6844083085       -2.1394296709
 C          2.3048123855       -1.1202823099       -0.8960183279
 N          3.5903247532       -0.6413169146       -0.5898589052
 S          3.7495378845        0.7409460459        0.3688828713
 O          3.5141408671        0.3808660194        1.7440425619
 O          2.9455378531        1.8150785466       -0.1691927244
 C          5.4830162078        1.0830659327        0.1286120207
 C          6.4072172906        0.3444046680        0.8432333389
 C          7.7568885711        0.5840441963        0.6407212968
 C          8.1580142751        1.5526209605       -0.2675048302
 C          7.2190954908        2.2876585133       -0.9753551526
 C          5.8673198791        2.0517403503       -0.7789001512
 H          5.1015258872        2.6037487448       -1.3000158664
 H          7.5338988013        3.0419017661       -1.6784407557
 H          9.2091266519        1.7378049771       -0.4226820887
 H          8.4898540442        0.0171138237        1.1916811198
 H          6.0481025927       -0.3900369484        1.5449808801
 H          4.1806723447       -0.5771576429       -1.4088077867
 H          2.8200124599       -1.7265302968       -2.8880476278
 H          0.5785393043       -2.6325224210       -3.3703006407
 H         -1.1979402245       -2.5298677427       -1.6619490806
 C         -1.0397168462       -1.4943021701        0.8499190254
 H         -0.6942117008       -0.7747062208        1.6104823507
 C         -1.2626080481       -2.8248204484        1.5565207059
 C         -0.7642012082       -4.1353400363        1.0340058878
 C         -0.1107932399       -3.5124214004        2.2285437095
 H         -0.2683273897       -3.9564170578        3.1997813557
 H          0.8689467846       -3.0774698954        2.0946135355
 H         -0.2233535543       -4.1407418257        0.1012254321
 H         -1.3952870589       -4.9991709947        1.1754924108
 H         -2.2142938235       -2.8486879501        2.0779082974
 O         -1.5748949645        1.2487158458        0.9614494830
