  62
        -98.94149176
 C         -2.5665445602       -0.0906320703        0.1123294941
 C         -2.5377337862        1.0526114894        0.9488079402
 C         -2.1505158016        2.3147798055        0.3124459140
 C         -1.8335140166        2.3297654044       -0.9946127112
 C         -1.3971341635        3.5313469496       -1.7873771008
 C          0.1019216644        3.8330128194       -1.6530010169
 C          0.5192966054        4.4585341948       -0.3212783306
 H         -0.1296995199        5.3058948175       -0.0957257502
 H          1.5315259308        4.8459865709       -0.4524743576
 C          0.5214108525        3.4788218654        0.8606612532
 H          1.4365946416        3.6113364327        1.4438677229
 H          0.5415910641        2.4520274085        0.4856208334
 C         -0.6523066375        3.6398134799        1.8276070222
 H         -0.5801339140        4.6063861972        2.3326016876
 H         -0.5736767995        2.8558047667        2.5858571002
 C         -2.0374826723        3.5343386580        1.1768644754
 H         -2.2486112042        4.4318903983        0.5956185459
 H         -2.7817166781        3.4472954275        1.9728328471
 H          0.3716870971        4.5218291338       -2.4570932222
 H          0.6574572310        2.9034703788       -1.8016868905
 H         -1.9776615995        4.4046618297       -1.4881783211
 H         -1.6132401169        3.3087490871       -2.8344578947
 O         -1.8866598127        1.2168322239       -1.7698563810
 C         -2.1982294211       -0.0240987719       -1.2332716708
 O         -2.1280684661       -0.9572264169       -2.0554423806
 O         -2.8145804944        1.0156848634        2.1797950981
 C         -2.8247546841       -1.4358639889        0.7683655130
 C         -1.7045485099       -2.3831522839        0.4114147051
 C         -1.8848472104       -3.7032089237        0.0249488357
 C         -0.7903750574       -4.4951954908       -0.2844268496
 C          0.4936922271       -3.9875655311       -0.2412259481
 C          0.6835268561       -2.6599572673        0.1337791757
 C         -0.4069578562       -1.8896031576        0.4910170132
 H         -0.2476493671       -0.8692644641        0.8109369912
 N          1.9668903526       -2.0867018070        0.1066165365
 S          2.2103738570       -0.4621856946        0.4323502728
 O          1.9786404932       -0.1672382243        1.8317476913
 O          1.4682534998        0.3189613960       -0.5242623261
 C          3.9551251183       -0.3551080457        0.0841475792
 C          4.3609570137       -0.2692997641       -1.2340611156
 C          5.7167040962       -0.2201313030       -1.5166395980
 C          6.6396935783       -0.2586916849       -0.4817927723
 C          6.2179100173       -0.3421240956        0.8364707428
 C          4.8629924056       -0.3918975940        1.1251782004
 H          4.4873127997       -0.4478707641        2.1341892550
 H          6.9373461026       -0.3682517886        1.6389575973
 H          7.6942237682       -0.2205097633       -0.7046531864
 H          6.0476921440       -0.1518400199       -2.5403783311
 H          3.6058880738       -0.2351271627       -2.0026346092
 H          2.7158033428       -2.6872769564        0.4158217291
 H          1.3415189671       -4.5991113429       -0.5069989129
 H         -0.9444702671       -5.5221620835       -0.5794162629
 H         -2.8795706807       -4.1108112848       -0.0508390029
 H         -2.7468204450       -1.2234985343        1.8496099009
 C         -4.2144625862       -2.0125942632        0.5448474832
 C         -5.3527356530       -1.1435664700        0.1024767053
 C         -4.8002817745       -2.1829714750       -0.8236483426
 H         -5.3972695195       -3.0619439828       -1.0185168052
 H         -4.2024542277       -1.8604523763       -1.6610521950
 H         -6.3241594159       -1.3066028302        0.5449101389
 H         -5.1357209029       -0.1060523930       -0.1083383651
 H         -4.4585152696       -2.7778521743        1.2755119343
