  62
        -98.94143021
 C          2.2941509920       -1.0947688660        0.5864098492
 C          3.5948026247       -0.9102481075        0.0520285620
 C          4.2674287672        0.3423260247        0.4101248200
 C          3.6417288967        1.2318816557        1.2020783212
 C          4.1993158382        2.5498666279        1.6665071205
 C          4.0187582120        3.6917761843        0.6568832759
 C          4.9205588545        3.6182711914       -0.5759347359
 H          4.8486094265        4.5825716543       -1.0828414603
 H          5.9566330804        3.4926650524       -0.2599929129
 C          4.5456654221        2.5104061836       -1.5704064839
 H          3.5260769241        2.1704176329       -1.3715020884
 H          4.5523841795        2.9147113255       -2.5852797300
 C          5.4832654234        1.3028435639       -1.5579950780
 H          5.1019018812        0.5672172492       -2.2707364945
 H          6.4781369840        1.6085797113       -1.8891716121
 C          5.6124939981        0.6165157078       -0.1918675718
 H          6.2132847497        1.2277774764        0.4809876039
 H          6.1138283119       -0.3434349975       -0.3369556840
 H          2.9726459701        3.7178443493        0.3418861326
 H          4.2312695312        4.6266763543        1.1805993418
 H          3.6613219050        2.8104775931        2.5804254470
 H          5.2571848703        2.4371720524        1.9050925301
 O          2.3967085166        1.0158223138        1.7012508948
 C          1.6824298221       -0.1333059213        1.3910577204
 O          0.5471130969       -0.1714405300        1.9042728138
 O          4.1671727214       -1.7560460072       -0.6850905028
 C          1.5400314479       -2.3575203311        0.2000698724
 C          0.4272548398       -1.9490643227       -0.7329628627
 C          0.7092683036       -1.7470281895       -2.0813022419
 C         -0.2631418337       -1.2759486808       -2.9435248461
 C         -1.5339978617       -0.9854204446       -2.4781686752
 C         -1.8211242474       -1.1760079182       -1.1338008531
 C         -0.8504689216       -1.6714453675       -0.2733880874
 H         -1.0824946176       -1.7977392193        0.7721996865
 N         -3.1073493387       -0.8643353973       -0.6452264868
 S         -3.6896519217        0.6650471462       -1.0754401833
 O         -4.2929167425        0.5666350899       -2.3820144988
 O         -2.6456710662        1.6569864320       -0.9404741699
 C         -4.9526275727        0.9158976583        0.1561714065
 C         -6.2657815561        0.6064774183       -0.1410887526
 C         -7.2323319179        0.7823976123        0.8366563604
 C         -6.8711112736        1.2598100596        2.0874646615
 C         -5.5481026396        1.5653238983        2.3712063927
 C         -4.5764143737        1.3915745005        1.3984636493
 H         -3.5373895181        1.6247071515        1.5745653538
 H         -5.2688249190        1.9370966023        3.3440355220
 H         -7.6242614659        1.3969833611        2.8471914618
 H         -8.2619112581        0.5475066125        0.6203274346
 H         -6.4980539524        0.2443673253       -1.1288956168
 H         -3.1473332439       -0.9734863867        0.3601846853
 H         -2.2966439656       -0.5918115093       -3.1309458885
 H         -0.0293144268       -1.1231650608       -3.9866534955
 H          1.7097575085       -1.9448004694       -2.4406199094
 H          2.2591897097       -2.9622458726       -0.3682836721
 C          1.0794569087       -3.1506737262        1.4041636546
 C          0.6183191423       -4.5641076125        1.2151048365
 C          1.9227946293       -4.2863542341        1.8978060661
 H          1.9935777115       -4.4487058957        2.9628634340
 H          2.8363918248       -4.4996712154        1.3626563242
 H         -0.2079140933       -4.9216348903        1.8101250989
 H          0.6451764443       -4.9647143635        0.2130858823
 H          0.5790282903       -2.5482473191        2.1520733004
