  62
        -98.94394237
 C          1.3957600491        1.5582687905       -0.6041861471
 C          2.6312522405        1.5426662052        0.0924048637
 C          3.6152259833        0.5408781566       -0.3333515082
 C          3.3060091931       -0.2904311505       -1.3447478839
 C          4.1831366855       -1.4025842795       -1.8409472292
 C          3.8719265872       -2.7168752320       -1.1117445022
 C          3.8330823256       -2.5856782457        0.4110265735
 H          2.9777636016       -1.9652380777        0.6912206103
 H          3.6442036418       -3.5823313093        0.8166323897
 C          5.1128741775       -2.0109126496        1.0348536081
 H          5.9382205779       -2.0934786447        0.3266833863
 H          5.3739737727       -2.6106632248        1.9092795468
 C          4.9933865183       -0.5609596207        1.5079254163
 H          4.1068919565       -0.4546825940        2.1387291992
 H          5.8655328088       -0.3320364730        2.1262402424
 C          4.9257327936        0.4980454835        0.4005670469
 H          5.0365421558        1.4790396225        0.8719561532
 H          5.7536828517        0.3549864750       -0.2968208202
 H          4.6220127440       -3.4571831223       -1.3970650831
 H          2.8939664244       -3.0752355116       -1.4429212819
 H          3.9986241598       -1.5377159805       -2.9081274890
 H          5.2265377469       -1.1303488659       -1.6930107179
 O          2.1257560853       -0.2342002447       -2.0069395711
 C          1.1271916976        0.6630795901       -1.6412832684
 O          0.0946326919        0.5582353772       -2.3275903986
 H         -0.5345275170        0.0234320011        0.1747683862
 C         -0.8283398406        0.6506415271        0.9998571667
 C         -0.4437079846        1.9832625497        1.0207436227
 C         -0.8069688840        2.7659713986        2.1109971066
 C         -1.5464483439        2.2241512338        3.1474900201
 C         -1.9266188866        0.8947852755        3.1231376271
 C         -1.5515269583        0.0967565413        2.0462560751
 N         -1.8688206358       -1.2637058603        2.0328057845
 S         -1.9405661614       -2.2110161326        0.6626916621
 O         -2.4578813817       -3.4708357319        1.1553917562
 O         -0.6548081991       -2.2657417710        0.0155819438
 C         -3.1785998823       -1.4527428381       -0.3722709848
 C         -2.8367153028       -0.7526279406       -1.5101234272
 C         -3.8503694594       -0.1832654945       -2.2681043629
 C         -5.1726041081       -0.3135662206       -1.8767113736
 C         -5.4983355546       -1.0196000568       -0.7276882329
 C         -4.4940884380       -1.5960300842        0.0304003422
 H         -4.7048458259       -2.1724063438        0.9164817638
 H         -6.5277387244       -1.1231069492       -0.4247562671
 H         -5.9525640353        0.1353574684       -2.4712211339
 H         -3.5895578554        0.3623995127       -3.1606282022
 H         -1.8015551322       -0.6451438583       -1.7961338153
 H         -2.4842789552       -1.5830124140        2.7643487691
 H         -2.4902385559        0.4680223382        3.9382946448
 H         -1.8235711969        2.8412749927        3.9884871316
 H         -0.4869887604        3.7965214221        2.1544733066
 C          0.3657401158        2.5606221326       -0.1156038240
 H          0.9559728172        3.3940132620        0.2995569452
 C         -0.5074711500        3.1286907767       -1.2250095979
 C         -1.9442178997        2.7530541439       -1.4069881516
 C         -1.5886136288        4.1212184069       -0.9133818489
 H         -1.7198439049        4.9615757170       -1.5779619556
 H         -1.7834603965        4.3424993316        0.1243573714
 H         -2.3767394597        2.0510922653       -0.7105632277
 H         -2.3060308402        2.6391181483       -2.4165748048
 H          0.0614367976        3.3002917362       -2.1329770248
 O          2.8986624205        2.3424236001        1.0306551359
