  62
        -98.93238307
 C         -1.9995472176       -1.0670331226       -0.3039374488
 C         -2.5261102915       -0.3490187217        0.7986100956
 C         -2.8491063061        1.0691678253        0.5846537752
 C         -2.5887133208        1.6239322977       -0.6107836918
 C         -2.7697945546        3.0588904613       -1.0403034296
 C         -4.0597592586        3.7705773034       -0.6093891660
 C         -5.2993258220        2.8683601863       -0.5200090861
 H         -6.1127847272        3.3264775282       -1.0855351644
 H         -5.0889553903        1.8998402811       -0.9769214439
 C         -5.7842047201        2.6606473677        0.9167552191
 H         -5.7443847209        3.6177273272        1.4411260304
 H         -6.8295136772        2.3438490136        0.8919217778
 C         -5.0144643244        1.6160754926        1.7241442904
 H         -5.2305172263        0.6161325311        1.3384610394
 H         -5.3807091911        1.6488819684        2.7529508138
 C         -3.4861988204        1.7850366583        1.7410307599
 H         -3.1021693953        1.2985264549        2.6418079205
 H         -3.2037220452        2.8347773692        1.7679174257
 H         -4.2383451337        4.5647313227       -1.3362807930
 H         -3.9029460873        4.2552483706        0.3531479131
 H         -1.9055137204        3.6262883607       -0.6817327003
 H         -2.7084620300        3.0379337655       -2.1312726985
 O         -2.0634991662        0.9059959090       -1.6418450229
 C         -1.7501886266       -0.4441268722       -1.5263482497
 O         -1.2938502128       -0.9366538937       -2.5744080146
 O         -2.7204817060       -0.8813852814        1.9255532158
 C         -1.6352153254       -2.5171610093       -0.0396017485
 C         -0.2834776472       -2.5820243306        0.6274743248
 C         -0.0664807483       -3.4004691120        1.7297343544
 C          1.1688099665       -3.4283919579        2.3524595793
 C          2.2017945973       -2.6281098718        1.9003341901
 C          1.9953204230       -1.8077584589        0.7962464694
 C          0.7637671534       -1.8010191052        0.1592612806
 H          0.6196462434       -1.1586952359       -0.6976411560
 N          3.0246561493       -0.9902197524        0.3029752441
 S          2.6035888200        0.5232030607       -0.3230981481
 O          1.5680514080        1.1255920382        0.4867780493
 O          2.3295594913        0.3832152428       -1.7307143352
 C          4.1464467764        1.3917206194       -0.1022186220
 C          4.3230189004        2.1875914955        1.0137515301
 C          5.5395193598        2.8269248760        1.1956216951
 C          6.5542656979        2.6573380998        0.2657226591
 C          6.3621141364        1.8556043132       -0.8498004495
 C          5.1478079310        1.2149271437       -1.0385799105
 H          4.9470004980        0.5903611486       -1.8934409105
 H          7.1520091992        1.7280393636       -1.5721819544
 H          7.4999851827        3.1552303110        0.4100635336
 H          5.6902791334        3.4531197621        2.0601082457
 H          3.5022896415        2.2945523085        1.7049408157
 H          3.8154080993       -0.9292964749        0.9301776422
 H          3.1601208581       -2.6333355964        2.3968537646
 H          1.3237655143       -4.0658996644        3.2094848054
 H         -0.8808557682       -3.9988029743        2.1108478716
 H         -2.3761906939       -2.8719708004        0.6960479158
 C         -1.7354678477       -3.4217813290       -1.2573260588
 C         -0.5409057348       -3.9085325124       -2.0153754458
 C         -1.3217628433       -4.8609993591       -1.1634610994
 H         -1.9343111656       -5.6052674110       -1.6489876905
 H         -0.8676264619       -5.1902399423       -0.2413362674
 H         -0.6243139677       -3.9719103729       -3.0894098492
 H          0.4353869900       -3.5955498193       -1.6783516908
 H         -2.6195962120       -3.2051073430       -1.8478866389
