  62
        -98.93906694
 C         -2.4692385201       -1.0198274379        0.3896559012
 C         -2.6975228909        0.1708286863        1.1295193678
 C         -3.9960337989        0.8271038211        0.9343920436
 C         -4.8926302818        0.2685773281        0.1014176532
 C         -6.2355954653        0.8494223633       -0.2317692253
 C         -6.1573450263        1.7583907870       -1.4662925114
 C         -5.0249301719        2.7836242542       -1.4073299911
 H         -4.0666663820        2.2594364487       -1.4351018301
 H         -5.0860844041        3.3885103247       -2.3145798737
 C         -5.0633562383        3.7016626433       -0.1775859267
 H         -6.0558394708        3.6759171164        0.2736419035
 H         -4.8805115638        4.7284732958       -0.5010905899
 C         -4.0147565817        3.3783802292        0.8886185933
 H         -3.9841813038        4.2089664533        1.5990020590
 H         -3.0273314575        3.3095652661        0.4245217235
 C         -4.2564483699        2.0964006646        1.6955935447
 H         -3.5520786539        2.0929150067        2.5327339873
 H         -5.2707570903        2.1015673521        2.1001002253
 H         -6.0057943103        1.1320032627       -2.3482464693
 H         -7.1127152230        2.2747427129       -1.5754353483
 H         -6.9230854619        0.0278046795       -0.4391094588
 H         -6.6035832847        1.4116452709        0.6242290263
 O         -4.6508686894       -0.8815117241       -0.5728926935
 C         -3.4387276114       -1.5487514013       -0.4632564241
 O         -3.3793755353       -2.5773519348       -1.1645959973
 O         -1.8517759789        0.6594186407        1.9276448502
 C         -1.1197258104       -1.6898668384        0.5819796891
 C         -0.1655167776       -1.3628823443       -0.5425338969
 C         -0.3821291466       -1.8164977764       -1.8400220277
 C          0.5260010953       -1.5263130446       -2.8414613160
 C          1.6716969498       -0.7995964242       -2.5687691363
 C          1.8918625374       -0.3333092987       -1.2781579831
 C          0.9697622243       -0.6106562538       -0.2783374649
 H          1.1494631529       -0.2332204545        0.7181441907
 N          3.0320620740        0.4265283480       -0.9728254814
 S          3.7453422073        0.2182241440        0.5441047557
 O          3.7653250731       -1.1850062474        0.8904816531
 O          3.1043213895        1.1006810935        1.4863157263
 C          5.3994174901        0.7943682866        0.2090981152
 C          5.6562064711        2.1515613368        0.2583656433
 C          6.9342773382        2.6020435900       -0.0318163298
 C          7.9282346775        1.6937190903       -0.3649296803
 C          7.6560885929        0.3345213861       -0.4078391508
 C          6.3797421726       -0.1228219609       -0.1200002838
 H          6.1241469853       -1.1702309926       -0.1312093762
 H          8.4318390537       -0.3692530893       -0.6631394794
 H          8.9222242342        2.0472673670       -0.5889708169
 H          7.1503711442        3.6576228657        0.0040196193
 H          4.8548510799        2.8179817156        0.5322655570
 H          3.7167242411        0.4274013493       -1.7165151919
 H          2.3860573276       -0.5877264181       -3.3498941296
 H          0.3462049781       -1.8826060470       -3.8446561801
 H         -1.2720498267       -2.3877141880       -2.0542486044
 H         -0.7073067204       -1.2427836461        1.4975718970
 C         -1.2039654152       -3.1910392203        0.7829035849
 C         -0.0200011534       -3.9029200711        1.3633328301
 C         -1.2711893834       -3.7438181434        2.1730493622
 H         -1.8844599302       -4.6142523444        2.3517834380
 H         -1.2618889831       -3.0396994840        2.9926194876
 H          0.2264585121       -4.8835918967        0.9861699789
 H          0.8413211574       -3.3062180694        1.6281801430
 H         -1.7727713997       -3.6992163303        0.0154936199
