  62
        -98.93184461
 C         -2.2980726346       -0.8564600999       -0.2782869621
 C         -3.6261084860       -1.2258199496        0.0576150420
 C         -4.6912241502       -0.3239573322       -0.3958574893
 C         -4.3625980830        0.7716962054       -1.1037791697
 C         -5.3369829740        1.8074503474       -1.5836349199
 C         -5.5009955803        2.9334920522       -0.5531864405
 C         -5.7584727504        2.4358148187        0.8691532126
 H         -4.8711367938        1.9089047252        1.2277567484
 H         -5.8872689161        3.3157562941        1.5030960775
 C         -6.9829255949        1.5205576245        1.0094519137
 H         -7.5537769224        1.8316677417        1.8868492475
 H         -7.6333951329        1.6366775594        0.1419073101
 C         -6.6497362362        0.0393079257        1.1974421100
 H         -7.5626228885       -0.4786065711        1.5032980688
 H         -5.9231360982       -0.0731626467        2.0060409168
 C         -6.1064807630       -0.6846979009       -0.0410440279
 H         -6.7717991543       -0.5131891240       -0.8895606156
 H         -6.0966489142       -1.7563833377        0.1776437256
 H         -6.3246821350        3.5751597554       -0.8713079833
 H         -4.5865030734        3.5310689409       -0.5462562453
 H         -4.9570451016        2.2310685476       -2.5147468847
 H         -6.2973754902        1.3332424486       -1.7761519672
 O         -3.0830610681        1.0863173971       -1.4229551400
 C         -2.0144637501        0.2932833802       -1.0167685145
 O         -0.9081610346        0.7309414090       -1.3778884746
 O         -3.9067671837       -2.2664091263        0.7122705146
 C         -1.1840544851       -1.7788057477        0.2032047630
 C         -0.1733622767       -1.0040399965        1.0082145806
 C         -0.4581393057       -0.8105748105        2.3610820599
 C          0.3880285604       -0.0863804427        3.1772451333
 C          1.5605507191        0.4462473322        2.6710585320
 C          1.8515231132        0.2710516368        1.3249136254
 C          0.9846627225       -0.4365460995        0.5015967745
 H          1.2356909531       -0.5044879829       -0.5408604003
 N          3.0220928277        0.8081040454        0.7650501526
 S          3.8212998338       -0.1174161104       -0.3995559668
 O          3.3164136186        0.2152221560       -1.7070129394
 O          3.7727141856       -1.5135007665       -0.0267104196
 C          5.4835226572        0.5073567785       -0.2270841042
 C          6.3901980423       -0.1815434076        0.5562270542
 C          7.6698987783        0.3292779651        0.7071499928
 C          8.0183597635        1.5153301131        0.0786579715
 C          7.0975252367        2.1956151021       -0.7046084191
 C          5.8168987152        1.6896481736       -0.8609290870
 H          5.0703380669        2.1768770848       -1.4666288171
 H          7.3724498397        3.1159779832       -1.1941849543
 H          9.0147456882        1.9108354594        0.1972397594
 H          8.3888519860       -0.1990215839        1.3123207550
 H          6.0766306899       -1.1038348241        1.0182585476
 H          3.6596487859        1.1771634998        1.4570609107
 H          2.2345302432        1.0004071764        3.3066633733
 H          0.1417143526        0.0520089454        4.2192118925
 H         -1.3669204522       -1.2347357402        2.7661585293
 H         -1.6941988270       -2.4476042659        0.9156387320
 C         -0.7161166890       -2.6966903736       -0.9196592011
 C          0.0641272800       -2.2891053371       -2.1321729863
 C          0.6866144031       -3.1903283013       -1.1073830416
 H          0.8256689509       -4.2301698678       -1.3657285289
 H          1.4727968075       -2.7892535252       -0.4858562675
 H         -0.2288486252       -2.7180663338       -3.0807936764
 H          0.4029811128       -1.2690279253       -2.2189511619
 H         -1.4941075533       -3.4310085744       -1.1199251482
