  62
        -98.93879739
 C         -2.7902839344       -0.2157532940       -0.3568056803
 C         -2.9180343733        0.7132299267        0.7084999620
 C         -2.5847355935        2.1069878835        0.4046379540
 C         -2.1909740313        2.4388322130       -0.8377889396
 C         -1.7835841027        3.8096161393       -1.3034419332
 C         -0.3192790339        4.1457883236       -0.9870465224
 C         -0.0306612828        4.4673871191        0.4800680135
 H          0.9596901834        4.9252734893        0.5184668326
 H         -0.7479092222        5.2059274538        0.8407603232
 C         -0.0375784836        3.2428523949        1.4060572682
 H          0.8284158893        3.2824476802        2.0718939608
 H          0.0778874531        2.3321085530        0.8117820573
 C         -1.2782564052        3.1169218868        2.2910843476
 H         -1.1960203618        2.1833969644        2.8542638988
 H         -1.3010266875        3.9427079767        3.0064473898
 C         -2.6092083245        3.0978744765        1.5286081946
 H         -3.3955179453        2.7918699887        2.2233734158
 H         -2.8411547645        4.0937841743        1.1516867976
 H          0.3075479443        3.3057164718       -1.2977729112
 H         -0.0444022148        5.0140821947       -1.5907219175
 H         -2.4377715091        4.5616160600       -0.8613437163
 H         -1.9159190930        3.8236349941       -2.3873925790
 O         -2.1263091424        1.5320049035       -1.8451490461
 C         -2.3686220387        0.1807479432       -1.6261297971
 O         -2.1864133014       -0.5244003761       -2.6376550989
 O         -3.2944773089        0.3831419906        1.8654450435
 C         -2.9917425790       -1.6780397625        0.0073188830
 C         -1.6878583385       -2.1857023285        0.5718481904
 C         -1.6128567092       -2.8258323620        1.8021612696
 C         -0.3862288608       -3.1709157640        2.3455622720
 C          0.7896900564       -2.8685153859        1.6816140702
 C          0.7206683599       -2.2469958022        0.4440354965
 C         -0.5061031218       -1.9259320309       -0.1091247778
 H         -0.5406316792       -1.4251003038       -1.0670648766
 N          1.9262264948       -1.8491033455       -0.2084595861
 S          2.2672884114       -0.2310482153        0.1828849522
 O          2.0642834846       -0.0637514843        1.5990916840
 O          1.5311491023        0.6590366187       -0.6910724339
 C          4.0079231926       -0.1552672284       -0.1934182295
 C          4.8951304282       -0.6952886422        0.7174887684
 C          6.2476671749       -0.6932311942        0.4176379921
 C          6.6877971343       -0.1559722132       -0.7831236878
 C          5.7852864321        0.3834215461       -1.6868392874
 C          4.4304053919        0.3828357845       -1.3928565351
 H          3.6936225397        0.7960485886       -2.0632652192
 H          6.1296641793        0.8023148158       -2.6187079321
 H          7.7409189623       -0.1565249356       -1.0159099296
 H          6.9526800584       -1.1103783794        1.1184484706
 H          4.5052276778       -1.0940024377        1.6392124770
 H          1.8168135695       -1.8813462334       -1.2152136252
 H          1.7525517494       -3.0888036723        2.1118957626
 H         -0.3462518305       -3.6572809820        3.3082511932
 H         -2.5227476560       -3.0216567942        2.3505107050
 H         -3.7277426069       -1.6737139338        0.8269275909
 C         -3.5514353535       -2.5394821180       -1.1122938116
 C         -2.7506733226       -3.5909426986       -1.8148060464
 C         -3.8327204512       -3.9915478939       -0.8603827706
 H         -4.7418296648       -4.4181189622       -1.2554795274
 H         -3.5296934083       -4.3961951503        0.0935103264
 H         -2.9130559229       -3.7165250658       -2.8742346406
 H         -1.7250998868       -3.7375520608       -1.5132539254
 H         -4.2700629274       -1.9996488186       -1.7193006177
