  62
        -98.94026825
 C         -2.0079108037       -0.0801994016       -0.4655597919
 C         -2.8247893193        0.5296034712        0.5189797283
 C         -4.1544742971       -0.0728969396        0.7017176981
 C         -4.5059450886       -1.1642176560        0.0000171608
 C         -5.8119669908       -1.9041982199        0.1029595463
 C         -6.9414420958       -1.2978740925       -0.7411508228
 C         -7.5156020426        0.0171764103       -0.2122451776
 H         -8.4341148863        0.2122460079       -0.7694243460
 H         -7.7907657417       -0.1035757969        0.8360007742
 C         -6.5797159581        1.2242603140       -0.3655614789
 H         -5.7987824369        0.9887637962       -1.0923875838
 H         -7.1418665943        2.0721126232       -0.7635962963
 C         -5.9226902826        1.6862907579        0.9351638468
 H         -6.6889400982        2.0501315720        1.6232580937
 H         -5.2543781311        2.5197166788        0.7044161848
 C         -5.1014665760        0.6033625064        1.6469152596
 H         -4.5058921253        1.0825273316        2.4277062119
 H         -5.7637725540       -0.1272573831        2.1106330723
 H         -7.7491027719       -2.0325420952       -0.7798842188
 H         -6.5761857598       -1.1525999912       -1.7605489081
 H         -6.1235066210       -1.9559222131        1.1466663932
 H         -5.6224652632       -2.9190194631       -0.2536482348
 O         -3.6730205052       -1.7505183945       -0.9015127011
 C         -2.4253547010       -1.2142779724       -1.1676814589
 O         -1.7822424574       -1.8281446925       -2.0442435582
 O         -2.4847248243        1.5169023668        1.2177148763
 C         -0.6210997095        0.4260985927       -0.8274730550
 C          0.4207160420       -0.2020157605        0.0609467551
 C          0.3191829283       -0.1380579461        1.4472782240
 C          1.2891897544       -0.7113295589        2.2492169245
 C          2.3792560899       -1.3545290790        1.6885648436
 C          2.4900743598       -1.4219456852        0.3066876489
 C          1.5144996673       -0.8467716064       -0.4972963960
 H          1.5988302489       -0.9161466079       -1.5735750587
 N          3.6167306534       -2.0503237699       -0.2649145177
 S          5.0951794185       -1.3450386818        0.1017840322
 O          6.0139187842       -1.8236859851       -0.9054680976
 O          5.4346206184       -1.6410983051        1.4696910099
 C          4.7953546216        0.4012063125       -0.0978407816
 C          4.8596782233        0.9363107305       -1.3692928190
 C          4.5325746656        2.2699927657       -1.5528214538
 C          4.1338733483        3.0377751981       -0.4690676709
 C          4.0747664243        2.4856046462        0.8008375555
 C          4.4081035171        1.1542741217        0.9924279511
 H          4.3783381615        0.6899474392        1.9642109547
 H          3.7636441714        3.0857228038        1.6405892121
 H          3.8642872658        4.0713986434       -0.6153983041
 H          4.5802030723        2.7036791811       -2.5388982268
 H          5.1753089468        0.3054147314       -2.1850603053
 H          3.5375624605       -2.1745332200       -1.2645335980
 H          3.1496503345       -1.7983275787        2.2984214870
 H          1.1968049429       -0.6564613830        3.3234163506
 H         -0.5251040231        0.3716816802        1.8858165584
 H         -0.4445304047        0.0606710550       -1.8514376036
 C         -0.5268841499        1.9464138436       -0.8665304871
 C          0.3279750720        2.7505954697        0.0621792649
 C          0.7278887339        2.5954090114       -1.3718742730
 H          0.6420870341        3.4438905542       -2.0332137789
 H          1.5667580252        1.9494906134       -1.5854132899
 H         -0.0605724122        3.7002924492        0.3960315595
 H          0.9059282263        2.2291776890        0.8085018337
 H         -1.4641070835        2.4013909732       -1.1687809042
