  62
        -98.93294537
 C         -1.4524393225       -1.4400261378       -0.3351545943
 C         -2.7741272529       -1.4264017277        0.1845395872
 C         -3.5840634443       -0.2432171093       -0.1243088914
 C         -3.0571558213        0.7489285066       -0.8638038498
 C         -3.7554077689        2.0169424544       -1.2745161895
 C         -3.7064063612        3.1248882707       -0.2138281384
 C         -4.5982294693        2.8931125836        1.0064925401
 H         -4.6349627246        3.8332625454        1.5605896002
 H         -5.6138101901        2.6710024714        0.6770431831
 C         -4.1067603022        1.7847317258        1.9483555701
 H         -3.0577426777        1.5635832621        1.7375909803
 H         -4.1579740886        2.1357148389        2.9816412895
 C         -4.9090151522        0.4854236246        1.8723290608
 H         -5.9333162836        0.6663005127        2.2060925176
 H         -4.4556221846       -0.2369340820        2.5560222074
 C         -4.9543648661       -0.1494593246        0.4759354115
 H         -5.3475157523       -1.1644340242        0.5736626129
 H         -5.6173957991        0.4203873195       -0.1749185754
 H         -4.0214890102        4.0535245317       -0.6953236976
 H         -2.6718914388        3.2523738589        0.1123465911
 H         -4.7937009562        1.7998484838       -1.5267739500
 H         -3.2480380251        2.3746337700       -2.1729295875
 O         -1.7927902280        0.6988129096       -1.3509438853
 C         -0.9470182872       -0.3722764662       -1.0824908129
 O          0.1843339327       -0.2403802653       -1.5765386722
 O         -3.2560931380       -2.3616045912        0.8784047197
 C         -0.5761323493       -2.6207461923        0.0499451778
 C          0.6295281008       -2.1125694813        0.7974924602
 C          0.5496243086       -1.9217888065        2.1731953913
 C          1.6222494817       -1.4190033471        2.8867178668
 C          2.7924404179       -1.0752933928        2.2322617490
 C          2.8720013547       -1.2385003792        0.8557335780
 C          1.8079583230       -1.7727538375        0.1455553238
 H          1.8922547297       -1.8912118905       -0.9211150413
 N          4.0245398188       -0.8174356514        0.1201603284
 S          4.3180824329        0.8296751595        0.1958607636
 O          5.3742911876        1.0844959039       -0.7594580253
 O          4.6257290912        1.2452693991        1.5537357151
 C          2.8019166464        1.5957605243       -0.3231102549
 C          1.8473575396        1.9018805982        0.6254014307
 C          0.6880205250        2.5438327162        0.2246506796
 C          0.5055205036        2.8728654187       -1.1085406288
 C          1.4720359691        2.5547992089       -2.0484407576
 C          2.6309078440        1.9074025702       -1.6556872792
 H          3.4075352823        1.6422679969       -2.3545663197
 H          1.3194208943        2.8003852769       -3.0872116661
 H         -0.4009667305        3.3690689710       -1.4190941916
 H         -0.0712923090        2.7791978860        0.9551606718
 H          2.0256969384        1.6398818227        1.6563219763
 H          4.8689606473       -1.3227519912        0.3511604182
 H          3.6296178561       -0.6554865548        2.7695423765
 H          1.5458158882       -1.2880142180        3.9557768919
 H         -0.3711772202       -2.1712335124        2.6824456603
 H         -1.1973039714       -3.1900289375        0.7600862117
 C         -0.2144772700       -3.5895007513       -1.0653132728
 C         -1.2542411947       -4.0193203800       -2.0567685849
 C         -0.0745578711       -3.2143576217       -2.5081236132
 H          0.6928985706       -3.7124249255       -3.0829679160
 H         -0.2258931704       -2.1854015616       -2.7885811905
 H         -1.3101745599       -5.0611751951       -2.3342399941
 H         -2.2146950377       -3.5266826033       -2.0062867460
 H          0.4573787386       -4.3643367245       -0.7068920017
