  62
        -98.94143974
 C          1.5692715233        1.4917950571       -0.4292904890
 C          0.8327338953        1.9607569083        0.6854023385
 C         -0.5214446563        2.4969900894        0.4133721412
 C         -0.9509578147        2.5846789690       -0.8579437473
 C         -2.2876589176        3.0412384623       -1.3816385030
 C         -3.3959216064        1.9999663077       -1.1771613339
 C         -3.4864505273        1.4332726297        0.2365444808
 H         -4.2920734919        0.6934581877        0.2469733049
 H         -2.5671043729        0.8988496127        0.4819089971
 C         -3.7770407736        2.4581858637        1.3313475086
 H         -4.6853635875        3.0103241773        1.0796447044
 H         -3.9717590796        1.8941671132        2.2472424334
 C         -2.6546704100        3.4583105548        1.6299348381
 H         -2.8512953341        3.8805075697        2.6196168402
 H         -2.6633442017        4.2925844093        0.9324542150
 C         -1.2608290990        2.8417298030        1.6821962613
 H         -0.5948897319        3.5162714049        2.2336144365
 H         -1.2924765336        1.9186455735        2.2749253350
 H         -4.3487963634        2.4604326943       -1.4450988994
 H         -3.2172023769        1.1659495288       -1.8605033480
 H         -2.5685901965        3.9890675542       -0.9326497470
 H         -2.1592068590        3.2052929371       -2.4540418915
 O         -0.1635775972        2.2130607163       -1.9098838431
 C          1.0712427653        1.6253709669       -1.7279945698
 O          1.6314053604        1.2743014052       -2.7863578660
 O          1.2494745357        1.9337382992        1.8734774711
 C          2.8844590447        0.7352865916       -0.3282471480
 C          2.5990135956       -0.7432346749       -0.1797262057
 C          3.2679279298       -1.6845326904       -0.9531146165
 C          2.9625715521       -3.0295207349       -0.8446010067
 C          1.9606379302       -3.4569515590        0.0082215628
 C          1.2845694107       -2.5238933279        0.7858742916
 C          1.6306931415       -1.1826051555        0.7116755148
 H          1.1135517421       -0.4773582168        1.3428984646
 N          0.2358067935       -2.9145090738        1.6388931264
 S         -1.2300656929       -2.1081604647        1.5360483569
 O         -1.1060219567       -0.7685145624        2.0437199647
 O         -2.1610097626       -2.9715718512        2.2300962047
 C         -1.6193823053       -2.0852158030       -0.2039885575
 C         -1.1050661633       -1.0790572885       -0.9959083250
 C         -1.3597004341       -1.0971502272       -2.3579467006
 C         -2.1279013323       -2.1150540274       -2.9017224214
 C         -2.6439428168       -3.1163916952       -2.0923574945
 C         -2.3833292054       -3.1078327299       -0.7317048608
 H         -2.7683172025       -3.8626594636       -0.0653037524
 H         -3.2445604747       -3.9033699949       -2.5191142157
 H         -2.3249010192       -2.1236615104       -3.9621468460
 H         -0.9455234092       -0.3174740146       -2.9793814899
 H         -0.5153664776       -0.2955657169       -0.5465943891
 H          0.0744649593       -3.9117960195        1.6601615226
 H          1.6997659391       -4.5023980979        0.0712963940
 H          3.4924561738       -3.7504925367       -1.4478845657
 H          4.0194874760       -1.3544231388       -1.6543671850
 H          3.3907721610        0.8793630013       -1.2931225869
 C          3.8120485879        1.2100909348        0.7714726711
 C          5.2868592503        0.9897021039        0.6260352547
 C          4.7206024470        2.3728952913        0.5153335281
 H          4.8951520504        3.0735349236        1.3177670789
 H          4.6805899510        2.8312261219       -0.4623401273
 H          5.8567964612        0.7362990714        1.5066162676
 H          5.6386884988        0.5153200955       -0.2774211238
 H          3.3834536377        1.1236063570        1.7611250041
