  62
        -98.93787573
 C         -1.7518582542       -1.5880783108        0.1531784719
 C         -1.9793110217       -0.5908797639        1.1326744936
 C         -2.9672923437        0.4580262035        0.8186693076
 C         -3.5930638763        0.4162604981       -0.3724346508
 C         -4.6277676920        1.3633112191       -0.9209700195
 C         -4.0260238086        2.6909557870       -1.4072913988
 C         -2.9892486050        3.3018284164       -0.4689846966
 H         -2.1838760810        2.5817156997       -0.3163913619
 H         -2.5627381588        4.1753334084       -0.9689632123
 C         -3.5265815196        3.7603747083        0.8846349116
 H         -4.3196023082        4.4945580058        0.7261168821
 H         -2.7094472098        4.2660429075        1.4058896880
 C         -4.0618192537        2.6578753258        1.8010884961
 H         -5.0550533833        2.3399871650        1.4955679884
 H         -4.1695402811        3.0896376569        2.8005416353
 C         -3.1450139801        1.4470615456        1.9455996361
 H         -2.1378008080        1.7871538506        2.2125702746
 H         -3.4831818085        0.8552294464        2.8048107170
 H         -3.5399226444        2.5084049759       -2.3685839674
 H         -4.8399624649        3.3995148388       -1.5698610053
 H         -5.0912470252        0.8593038777       -1.7719582533
 H         -5.4020392375        1.5377506417       -0.1795351998
 O         -3.3173638286       -0.5427974243       -1.2991963699
 C         -2.3914940667       -1.5480445901       -1.0857412777
 O         -2.2518999636       -2.3145092276       -2.0574518345
 O         -1.3798924708       -0.5747013224        2.2427608591
 C         -0.7340821850       -2.6657903755        0.4910381226
 C          0.6010938969       -2.2592963544       -0.0837023048
 C          0.9195826535       -2.4436576985       -1.4245123164
 C          2.1372546005       -2.0101769755       -1.9181429344
 C          3.0564971483       -1.3848008364       -1.0935348210
 C          2.7401412183       -1.1829241497        0.2433103054
 C          1.5201496185       -1.6216559922        0.7384782117
 H          1.2672459399       -1.4484651751        1.7758918659
 N          3.6591450440       -0.5346164952        1.0901199649
 S          4.3036756299        0.9175490417        0.5636043990
 O          5.3246680215        0.6599028617       -0.4201995869
 O          4.7354097348        1.5984836467        1.7630107155
 C          2.9368648209        1.7812360326       -0.1885494442
 C          2.8762758700        1.9154176392       -1.5603795788
 C          1.7792151187        2.5478096378       -2.1230931614
 C          0.7673236178        3.0308549683       -1.3085342609
 C          0.8449611329        2.8915447063        0.0687849349
 C          1.9370887790        2.2571071530        0.6365351020
 H          2.0300867890        2.1364886275        1.7041716456
 H          0.0570052022        3.2701957731        0.7003736809
 H         -0.0874360858        3.5205042835       -1.7478219949
 H          1.7153109053        2.6598109097       -3.1934473428
 H          3.6865502493        1.5311528120       -2.1577733230
 H          3.3334077814       -0.4498560642        2.0423254452
 H          4.0108482923       -1.0478907845       -1.4643942034
 H          2.3747286730       -2.1606026768       -2.9603165606
 H          0.1969025228       -2.9037027320       -2.0796860796
 H         -0.6438582564       -2.6414746392        1.5855370988
 C         -1.1511394523       -4.0610115616        0.0777383604
 C         -0.4224469547       -5.2320469938        0.6636956815
 C         -1.8346238583       -4.9456892126        1.0750501785
 H         -2.6178243769       -5.6028398466        0.7280987390
 H         -2.0068056786       -4.5479919497        2.0647594491
 H         -0.2325484093       -6.0879437823        0.0346354283
 H          0.3645807582       -5.0259142366        1.3736199592
 H         -1.4784437323       -4.1342458299       -0.9503801621
