  62
        -98.93683419
 C          1.0008613801        1.7394109590       -0.0750581013
 C          1.2029677893        0.3748370389       -0.3948491013
 C          2.4428345690       -0.2317574418        0.1228200985
 C          3.2673018095        0.4971329178        0.8949533584
 C          4.5902266794        0.0384318570        1.4395010582
 C          5.6632374292        0.0951378664        0.3333023180
 C          6.2189672484       -1.2687684140       -0.0775124820
 H          6.7912257983       -1.1245684444       -0.9965218221
 H          6.9133282783       -1.6149086743        0.6910233279
 C          5.1810468277       -2.3723142634       -0.3034353118
 H          5.6874779772       -3.1791320437       -0.8374569918
 H          4.8679713776       -2.7829008832        0.6573799683
 C          3.9310219778       -1.9654699127       -1.0944294116
 H          3.6663091572       -2.7906428426       -1.7583994915
 H          4.1411995882       -1.1042496329       -1.7290003417
 C          2.6917896881       -1.6721380220       -0.2281455714
 H          1.7987025878       -1.9809805915       -0.7779835312
 H          2.7358718979       -2.2673717719        0.6873669086
 H          6.4958909996        0.7172642159        0.6652071778
 H          5.2303424694        0.5909553266       -0.5381365220
 H          4.4969998688       -0.9718224029        1.8311616583
 H          4.8539108499        0.7084541669        2.2580422481
 O          3.0199018203        1.7941044479        1.2138824583
 C          1.9021654606        2.4463477585        0.7276823785
 O          1.8207065314        3.6425460386        1.0731483184
 O          0.4086412287       -0.3245137107       -1.0781579511
 C         -0.1927219495        2.5457150396       -0.5642021312
 C         -1.4175937295        2.2910007204        0.2809912890
 C         -1.9693433088        3.3132198908        1.0447877190
 C         -3.1025378188        3.0896479414        1.8059953792
 C         -3.7109259696        1.8480366718        1.8092737694
 C         -3.1600098603        0.8155643814        1.0569889294
 C         -2.0155669203        1.0383427107        0.3057664092
 H         -1.5905825608        0.2316346305       -0.2696504108
 N         -3.7361531110       -0.4594207382        1.0764287096
 S         -3.6265081618       -1.5104519684       -0.2161463804
 O         -3.6614690016       -0.8184973384       -1.4828870804
 O         -4.7102180423       -2.4480660777        0.0087975798
 C         -2.0976582023       -2.3918118892        0.0061199994
 C         -1.6012019922       -2.5811154594        1.2792854093
 C         -0.4682300826       -3.3610423701        1.4457700292
 C          0.1379362969       -3.9449351605        0.3449920791
 C         -0.3713191732       -3.7408458103       -0.9276364708
 C         -1.4994208228       -2.9565036796       -1.1012950407
 H         -1.9197355928       -2.7624463795       -2.0752141306
 H          0.1085412064       -4.1851307906       -1.7852993708
 H          1.0172930266       -4.5558334310        0.4768455290
 H         -0.0629312525       -3.5107977702        2.4339893191
 H         -2.0950362618       -2.1136611391        2.1153480794
 H         -4.6172967409       -0.5373703477        1.5615019897
 H         -4.6021600796        1.6740159423        2.3927921596
 H         -3.5215710683        3.8915538817        2.3947882892
 H         -1.4955852183        4.2841519705        1.0461869389
 H          0.0918514511        3.5982133595       -0.4282150713
 C         -0.5032480899        2.3250254497       -2.0320468511
 C         -1.2091044194        3.4052368401       -2.7925894611
 C          0.2366901204        3.1178972492       -3.0647499413
 H          0.5039088500        2.6344574190       -3.9923793213
 H          0.9712671908        3.8295019588       -2.7154957315
 H         -1.9409413597        3.1173361405       -3.5318193810
 H         -1.4532357988        4.3141182403       -2.2632245711
 H         -0.7504208105        1.2995860299       -2.2737086610
