  62
        -98.94599850
 C          1.3375215355        1.1827624222       -0.0742616385
 C          2.1338477286        0.5909040395        0.9429772520
 C          2.8850805474       -0.6140505501        0.5707310727
 C          2.7795069347       -1.0898495600       -0.6830313338
 C          3.5269261966       -2.2761067354       -1.2184116331
 C          4.8626762145       -1.8530076374       -1.8456523546
 C          5.6980454945       -0.9306867850       -0.9575951845
 H          6.6291437595       -0.7238086634       -1.4896817982
 H          5.1764913020        0.0222379043       -0.8421101212
 C          6.0184565542       -1.5038881860        0.4300362480
 H          5.8684429856       -2.5841425575        0.4283701575
 H          7.0734613773       -1.3243812085        0.6474412013
 C          5.2155921046       -0.8818023683        1.5741712479
 H          5.6689624063       -1.1971100122        2.5176302318
 H          5.2904720597        0.2073377803        1.5238815564
 C          3.7305782445       -1.2618352262        1.6304516576
 H          3.3338329891       -0.9096231071        2.5867872781
 H          3.6293167338       -2.3483131199        1.5935045582
 H          5.4346709818       -2.7529654689       -2.0788537522
 H          4.6556882325       -1.3305779857       -2.7826277361
 H          2.9139263196       -2.7558602046       -1.9838016201
 H          3.7025132149       -2.9841301020       -0.4105409929
 O          1.9976206302       -0.5084202896       -1.6261055918
 C          1.2540376925        0.6311196307       -1.3523956597
 O          0.5824406113        1.0221108350       -2.3289987970
 O          2.2131043703        1.0546968851        2.1102533936
 C          0.5468193202        2.4214886219        0.3203709570
 C         -0.8752310440        2.0226839723        0.6323476461
 C         -1.3476372434        2.0148908095        1.9395625573
 C         -2.6278847257        1.5722995477        2.2255350888
 C         -3.4547236305        1.1098425836        1.2174420253
 C         -2.9862419396        1.1072695347       -0.0898583198
 C         -1.7157737491        1.5790592197       -0.3787929588
 H         -1.3556083636        1.5559241335       -1.3962214014
 N         -3.7898303857        0.5575624740       -1.1123078988
 S         -4.2313582647       -1.0384575349       -0.8381427644
 O         -4.3309794868       -1.6529759442       -2.1432563253
 O         -5.4334302568       -1.0642825351       -0.0422426532
 C         -2.8837865738       -1.7435921890        0.1000526001
 C         -3.1098325361       -2.1901651162        1.3860647669
 C         -2.0460627750       -2.6869598441        2.1217736917
 C         -0.7781964282       -2.7236695928        1.5632568096
 C         -0.5680763698       -2.2764478362        0.2682473090
 C         -1.6275648063       -1.7792831522       -0.4725661583
 H         -1.4829063673       -1.4199843813       -1.4799541469
 H          0.4204171473       -2.3005017651       -0.1633006732
 H          0.0544843526       -3.0990839240        2.1367330545
 H         -2.2062391140       -3.0370562791        3.1286356178
 H         -4.1102494802       -2.1366038371        1.7833580384
 H         -3.3644026824        0.6419267296       -2.0254709591
 H         -4.4446498765        0.7340811298        1.4203858328
 H         -2.9808095229        1.5741496211        3.2452369825
 H         -0.6940480555        2.3373900191        2.7365957231
 H          1.0086539547        2.7720753167        1.2526612999
 C          0.6152439094        3.5399978703       -0.6990044273
 C          0.2861552154        4.9357186190       -0.2644283392
 C          1.7016726435        4.5656244200       -0.5887251882
 H          2.1421845172        4.9483964640       -1.4971606331
 H          2.4026121485        4.4670127156        0.2273668283
 H         -0.2486217614        5.5756830192       -0.9492931175
 H          0.0273430420        5.0879161357        0.7724251433
 H          0.3197076409        3.2408530939       -1.6959767549
