  62
        -98.93416102
 C         -1.6457152544       -0.3787116298       -0.2312894710
 C         -2.7701870543       -1.1998823764        0.0396056468
 C         -4.0883493654       -0.6223755845       -0.2529446296
 C         -4.1702929687        0.6293251800       -0.7373536700
 C         -5.4229810880        1.3573883839       -1.1485367790
 C         -6.4304524911        1.6722955092       -0.0260057485
 C         -7.5356709060        0.6227102825        0.1451781528
 H         -8.4791661083        1.1359629009        0.3417776637
 H         -7.6610774570        0.0880162663       -0.7971841224
 C         -7.3298958789       -0.3840535726        1.2809813627
 H         -7.5736211709        0.0961069910        2.2314819698
 H         -8.0387204257       -1.2019974839        1.1350215604
 C         -5.9220851278       -0.9658338587        1.4097090571
 H         -5.9608387836       -1.7995901631        2.1135227245
 H         -5.2559733175       -0.2203978116        1.8507117759
 C         -5.2993107850       -1.4432062382        0.0834145078
 H         -6.0294691241       -1.3977873241       -0.7233040354
 H         -4.9586241492       -2.4757356402        0.1828929546
 H         -6.9008312650        2.6228946139       -0.2826936599
 H         -5.8955377465        1.8205624895        0.9117075138
 H         -5.0803706778        2.2945052323       -1.5923934956
 H         -5.9219045287        0.7807712184       -1.9309833771
 O         -3.0689139397        1.3975679359       -0.9544986407
 C         -1.7850706696        0.9306021632       -0.6941941352
 O         -0.8946379542        1.7714018828       -0.9162731214
 O         -2.6753804694       -2.3674073976        0.5024555087
 C         -0.2733732204       -0.9607193963        0.0566048933
 C          0.5744881342        0.0222604895        0.8214150030
 C          0.2166408809        0.3439324919        2.1284983303
 C          0.9606246622        1.2461066328        2.8630853788
 C          2.0914513638        1.8299072194        2.3186295934
 C          2.4552487169        1.5177887706        1.0147383229
 C          1.6980195645        0.6198653075        0.2740796541
 H          1.9730606322        0.4337827873       -0.7497887515
 N          3.5941215399        2.0909139531        0.4349841872
 S          4.5078511170        1.2349712740       -0.6644834169
 O          5.8240611192        1.8326187817       -0.5768104139
 O          3.9011730240        1.2556082743       -1.9713477641
 C          4.5605054349       -0.4380141014       -0.0428891332
 C          4.1911657760       -1.4824014701       -0.8652751458
 C          4.2329041672       -2.7760792939       -0.3695915399
 C          4.6390580214       -3.0013547581        0.9362988969
 C          5.0133563049       -1.9421677583        1.7489952680
 C          4.9771055166       -0.6477300950        1.2569565860
 H          5.2699040005        0.1945110400        1.8621499092
 H          5.3314572399       -2.1213168833        2.7632957174
 H          4.6646907480       -4.0084393381        1.3215355634
 H          3.9444393755       -3.6009850556       -1.0017825574
 H          3.8745357851       -1.2612862515       -1.8722595955
 H          4.1565380184        2.6614622237        1.0477445567
 H          2.6771636222        2.5329183795        2.8910000697
 H          0.6652515688        1.4923281418        3.8718797719
 H         -0.6641224093       -0.1158114711        2.5558687027
 H         -0.4778896862       -1.8181635203        0.7194496816
 C          0.4369096462       -1.5215070621       -1.1659843352
 C         -0.3305787445       -2.1226460998       -2.3038778732
 C          0.4119972147       -0.8360297938       -2.4977684656
 H          1.3126320013       -0.8385957609       -3.0952844818
 H         -0.1519122926        0.0801997487       -2.5805429141
 H          0.0557535477       -3.0167210822       -2.7693474782
 H         -1.4091738168       -2.0852666427       -2.2557498465
 H          1.3640291448       -2.0178126471       -0.8945712996
