  62
        -98.93700754
 C         -1.4136447151       -1.4859330200        0.1804466411
 C         -2.4735717022       -1.0102774438        0.9892851177
 C         -3.3002996510        0.0781433104        0.4351466946
 C         -2.9720321217        0.5903602256       -0.7650646049
 C         -3.6850436360        1.6941985734       -1.4981249588
 C         -3.3643160499        3.1030419413       -0.9529949527
 C         -3.0250253726        3.1617881842        0.5367197807
 H         -2.2837627365        2.3940603907        0.7684115583
 H         -2.5611453744        4.1302346225        0.7427104515
 C         -4.2258335327        3.0143410649        1.4708756612
 H         -3.8522810145        2.9358450582        2.4950388209
 H         -4.8321854704        3.9216311741        1.4076844454
 C         -5.1399094157        1.8248515169        1.1870019577
 H         -5.6171614485        1.9484254954        0.2183570014
 H         -5.9389551501        1.8395819885        1.9344355743
 C         -4.4820360438        0.4502170255        1.2952684464
 H         -5.2520608164       -0.3121384510        1.1201786740
 H         -4.1455488689        0.2978013691        2.3268237916
 H         -4.2095244240        3.7615626735       -1.1573473822
 H         -2.5055478844        3.4902340265       -1.5047724171
 H         -3.3658361769        1.6402273635       -2.5405039466
 H         -4.7543055057        1.4970169883       -1.4703410499
 O         -1.8867034331        0.1683377287       -1.4672862706
 C         -1.0852231451       -0.8774654470       -1.0326975070
 O         -0.1458226609       -1.1474491119       -1.7993571789
 O         -2.7232866430       -1.4760941513        2.1348472380
 C         -0.5870958487       -2.6449947690        0.7088730541
 C          0.8816143549       -2.3347631662        0.5738496277
 C          1.7602960462       -3.0738291651       -0.2058925311
 C          3.0904189484       -2.7034705716       -0.3060374089
 C          3.5727750636       -1.5966008157        0.3671591731
 C          2.7015618668       -0.8513654059        1.1511835065
 C          1.3715487944       -1.2247265474        1.2520330315
 H          0.6920383586       -0.6366959876        1.8575911824
 N          3.1817123124        0.2908260290        1.8284665041
 S          3.8306018458        1.4908314971        0.8521349503
 O          5.1303843737        1.0728547360        0.3921814999
 O          3.7976257843        2.6932810915        1.6549376359
 C          2.7001848589        1.6224403411       -0.5181075557
 C          1.5106678998        2.2922312819       -0.3141487970
 C          0.5905515410        2.3510334024       -1.3466323475
 C          0.8675835700        1.7314901619       -2.5547156373
 C          2.0639718696        1.0587242051       -2.7413864859
 C          2.9910555752        0.9994838869       -1.7141080346
 H          3.9317807265        0.4843682796       -1.8192955393
 H          2.2688383489        0.5675545284       -3.6785838897
 H          0.1403598508        1.7621510432       -3.3503173545
 H         -0.3453448127        2.8659031414       -1.1997862308
 H          1.3296915867        2.7652640614        0.6386519159
 H          2.4941511135        0.6998465922        2.4457440175
 H          4.6024208779       -1.2868713059        0.2894086748
 H          3.7604885146       -3.2832373855       -0.9224499658
 H          1.3987148368       -3.9254112282       -0.7578816877
 H         -0.8274433646       -2.6832680725        1.7848006404
 C         -0.9736110358       -3.9994693466        0.1340140981
 C         -2.3769664722       -4.2736336996       -0.3151269525
 C         -1.2689528833       -4.2039351956       -1.3205519545
 H         -0.9421164041       -5.1233295206       -1.7841244635
 H         -1.2123418756       -3.3441208391       -1.9689670566
 H         -2.8098486156       -5.2364273517       -0.0883435423
 H         -3.0837834090       -3.4574816667       -0.2748587978
 H         -0.4681002215       -4.8124847917        0.6463737744
