  62
        -98.93772324
 C          2.0889599663        1.4300734173        0.0771248005
 C          2.3934952159        0.4464664791       -0.8931016933
 C          3.7298429260       -0.1701068140       -0.8051935819
 C          4.5808496534        0.2129207736        0.1607378479
 C          5.9912221192       -0.2570981909        0.4138442844
 C          6.2668223545       -1.7637639814        0.3096132754
 C          5.0990848031       -2.6698887493        0.7264690350
 H          5.4628016048       -3.4109984002        1.4406999483
 H          4.3296342008       -2.0830389606        1.2314647831
 C          4.4756968970       -3.4219296754       -0.4520869647
 H          5.2773978829       -3.7953636703       -1.0930314002
 H          3.9338009817       -4.2896444716       -0.0677960776
 C          3.4930475708       -2.6144701553       -1.2990892760
 H          2.5797794234       -2.4295941038       -0.7264652295
 H          3.2118924633       -3.2244435040       -2.1611877673
 C          4.0133140390       -1.2575434762       -1.8016852272
 H          3.4545286875       -0.9963982723       -2.7043682148
 H          5.0701269400       -1.3089841998       -2.0511558952
 H          7.1308365639       -1.9703105715        0.9434414092
 H          6.5604213758       -2.0115311264       -0.7095701233
 H          6.6556759075        0.2757025533       -0.2726094010
 H          6.2275084176        0.0888525396        1.4230002068
 O          4.2517983368        1.1696201170        1.0730654268
 C          3.0172580853        1.7901002497        1.0592937652
 O          2.8659725505        2.6415570467        1.9580271498
 O          1.6082953700        0.0797472184       -1.8090422897
 C          0.7594305331        2.1671328654        0.1426042190
 C         -0.3090135829        1.3192393011        0.7915137318
 C         -0.9420369371        1.7381654827        1.9557362309
 C         -1.9230446708        0.9591701013        2.5448393710
 C         -2.2904777148       -0.2523265924        1.9878217519
 C         -1.6633031430       -0.6791051016        0.8238824922
 C         -0.6901520333        0.1098065261        0.2276588365
 H         -0.2055819490       -0.2277803401       -0.6763702184
 N         -2.0228133289       -1.9102453415        0.2491506126
 S         -3.6531267543       -2.2508689874        0.0979986524
 O         -4.1659446142       -2.7300642148        1.3579426525
 O         -3.7519135852       -3.1711663057       -1.0128435498
 C         -4.4153795796       -0.6897620715       -0.3082746009
 C         -5.3578494922       -0.1406626446        0.5366690357
 C         -5.9082420636        1.0903604195        0.2170254580
 C         -5.5049239495        1.7488639266       -0.9339064250
 C         -4.5587184658        1.1822822221       -1.7743410548
 C         -4.0060432153       -0.0483382211       -1.4606737351
 H         -3.2702593274       -0.5160118821       -2.0954253247
 H         -4.2461557109        1.6952667805       -2.6696694911
 H         -5.9297011649        2.7093301348       -1.1794685782
 H         -6.6455278145        1.5323998333        0.8675845429
 H         -5.6398981577       -0.6857687116        1.4226971585
 H         -1.5206748802       -2.1207210992       -0.6009516876
 H         -3.0416349122       -0.8785991131        2.4412898908
 H         -2.4036656060        1.2960748887        3.4505100487
 H         -0.6490146022        2.6745915964        2.4074666577
 H          0.9376511625        3.0335631550        0.7930902927
 C          0.2954972913        2.6741435661       -1.2101925902
 C         -0.6659097978        3.8211927104       -1.2651753105
 C          0.7598072567        4.0169713595       -1.6840730336
 H          0.9800391205        4.1452811703       -2.7332801422
 H          1.4125173333        4.5785301479       -1.0311390798
 H         -1.4282155868        3.8178829974       -2.0286129243
 H         -0.9822935223        4.2546342862       -0.3286956641
 H          0.1956050074        1.8928166520       -1.9515427500
