  62
        -98.93167707
 C         -2.2421846238        0.1007649468        0.5281858396
 C         -3.4943575430        0.1110966484        1.1906232166
 C         -4.6848180357        0.3875474920        0.3680660571
 C         -4.5316649712        0.6446654145       -0.9439847491
 C         -5.5426712790        0.9915284445       -2.0169779061
 C         -7.0363046483        0.7852810397       -1.7786283401
 C         -7.4695356527       -0.6754847554       -1.6582055272
 H         -8.5283281181       -0.6968573940       -1.3912657084
 H         -7.3632955160       -1.1509881772       -2.6365123047
 C         -6.6871380659       -1.5157239947       -0.6518833606
 H         -7.0950378529       -2.5300070128       -0.6742103293
 H         -5.6427786963       -1.5838653657       -0.9640345685
 C         -6.7428201437       -1.0248126766        0.7935108561
 H         -6.2834408115       -1.7941781143        1.4202623859
 H         -7.7833971656       -0.9178208476        1.1056184552
 C         -6.0081009774        0.2979477958        1.0721893021
 H         -5.7883836035        0.3434494300        2.1428516035
 H         -6.6310013777        1.1555367596        0.8299816461
 H         -7.5502902989        1.2105665514       -2.6449116002
 H         -7.3610570968        1.3519972436       -0.9110727947
 H         -5.3719973867        2.0474171861       -2.2541726453
 H         -5.2399397045        0.4253605367       -2.9036041880
 O         -3.2985294700        0.6776023732       -1.5281089250
 C         -2.1310726116        0.4080076645       -0.8272072361
 O         -1.1021013470        0.4829570343       -1.5232947153
 O         -3.6153435943       -0.0930183953        2.4283077557
 C         -1.0099283657       -0.2050346517        1.3588512601
 C          0.0909287526        0.7814851520        1.0645723218
 C         -0.1089575992        2.1227886810        1.3829719288
 C          0.8733435355        3.0616089845        1.1367236609
 C          2.0845525763        2.6807242476        0.5860939662
 C          2.2907982238        1.3466537088        0.2576451443
 C          1.2964214307        0.4076844976        0.4944789111
 H          1.4772037215       -0.6152579773        0.2095415278
 N          3.4973836186        0.9312624260       -0.3266790677
 S          4.0946539438       -0.5983942375        0.0564578467
 O          3.5015373461       -1.5754640229       -0.8213962989
 O          3.9519933361       -0.8457615377        1.4741867128
 C          5.8156212033       -0.3841827830       -0.3615074380
 C          6.7298843802       -0.1136874870        0.6390446298
 C          8.0593459964        0.0802613881        0.2979987366
 C          8.4492253103        0.0044359479       -1.0306362126
 C          7.5200953068       -0.2680160277       -2.0240199854
 C          6.1896517106       -0.4645878480       -1.6898845074
 H          5.4339742801       -0.6872515289       -2.4253110485
 H          7.8272328365       -0.3288215239       -3.0556259662
 H          9.4841988109        0.1556236533       -1.2937504798
 H          8.7843632035        0.2889907445        1.0680821077
 H          6.3816086621       -0.0719462162        1.6585148533
 H          4.2178673111        1.6392612546       -0.2983389918
 H          2.8567283667        3.4116996185        0.3996440671
 H          0.7008464476        4.0981539217        1.3851508576
 H         -1.0527406052        2.4186659095        1.8214603244
 H         -1.3356422289       -0.0437629036        2.4009191820
 C         -0.5456354384       -1.6511121349        1.2714953084
 C         -1.5209300936       -2.7679029904        1.0547837439
 C         -0.5354671667       -2.4153926690       -0.0168483668
 H          0.2917194519       -3.0850971347       -0.2051076531
 H         -0.8898672490       -1.9094342122       -0.9015025322
 H         -1.3803224453       -3.6866783498        1.6039392121
 H         -2.5568896150       -2.5027502107        0.9010806488
 H          0.2734439526       -1.8529831357        1.9569274378
