  62
        -98.94434774
 C         -1.8412673391       -1.0697739993       -0.1776714298
 C         -2.3523069392        0.0666429107       -0.8493587496
 C         -3.8164456592        0.2029474506       -0.8493007595
 C         -4.5676659891       -0.7378510295       -0.2483497696
 C         -6.0627974391       -0.6924514696       -0.1260971995
 C         -6.4927515191        0.0052554902        1.1721110006
 C         -5.7996944492        1.3465917402        1.4119395908
 H         -6.2020996792        1.7590979000        2.3396847209
 H         -4.7330356592        1.1741661002        1.5726877507
 C         -5.9803353093        2.3662437103        0.2788114609
 H         -6.2198914194        3.3376800802        0.7164062811
 H         -6.8239943093        2.0772995904       -0.3490585490
 C         -4.7424667094        2.5661684505       -0.5977327491
 H         -3.8724276194        2.7647870505        0.0335723209
 H         -4.9044672695        3.4515868606       -1.2183950790
 C         -4.3974877294        1.4050657707       -1.5388121493
 H         -5.2785833594        1.1287331307       -2.1216857293
 H         -3.6245447494        1.7560459308       -2.2290686493
 H         -7.5738461991        0.1526311301        1.1428432107
 H         -6.2621435890       -0.6540742499        2.0120559905
 H         -6.4766471192       -0.1698784695       -0.9862406594
 H         -6.4387640091       -1.7168911097       -0.1191866496
 O         -4.0398015290       -1.8261560496        0.3680724102
 C         -2.6686483890       -2.0141818195        0.4294984701
 O         -2.3155780189       -3.0406205395        1.0443839400
 H          1.8173927907        0.2075250410       -1.0019391698
 C          1.4149183708        0.5404447709       -0.0602023198
 C          0.3314408309       -0.1029627993        0.5157275002
 C         -0.1588932891        0.3727515405        1.7303413103
 C          0.4009231809        1.4801365705        2.3350362804
 C          1.4730383008        2.1307096806        1.7489239905
 C          1.9779828607        1.6578408408        0.5446623804
 N          3.0598991307        2.3005462610       -0.0723499596
 S          4.2234617007        1.4176106712       -0.8749457298
 O          5.3900086606        2.2748961413       -0.8716759298
 O          3.7516376806        1.0086782313       -2.1735468398
 C          4.5224589208       -0.0154875389        0.1463844200
 C          4.4994414309       -1.2714660789       -0.4227507802
 C          4.7405674510       -2.3773078989        0.3771428096
 C          4.9967441811       -2.2079599591        1.7285288696
 C          5.0211889610       -0.9384213092        2.2857794998
 C          4.7847987409        0.1701700609        1.4896784600
 H          4.8070759309        1.1684396908        1.8950455501
 H          5.2230269511       -0.8100565393        3.3370069298
 H          5.1798915912       -3.0699774892        2.3504953695
 H          4.7251999011       -3.3644021489       -0.0569729505
 H          4.2898506708       -1.3586586187       -1.4763137202
 H          3.4540884206        3.0729672910        0.4431664605
 H          1.9059203907        3.0037431606        2.2130002406
 H          0.0020775009        1.8414407203        3.2709687605
 H         -0.9984804990       -0.1349288896        2.1861474803
 C         -0.3409760191       -1.2980945992       -0.1133833699
 H         -0.1927364790       -2.1638510993        0.5485123700
 C          0.1853667808       -1.6429783790       -1.4904417800
 C          1.3874015209       -2.5233162689       -1.6431723402
 C          0.0269160509       -3.0460372889       -1.9916690202
 H         -0.2192352591       -3.1978267588       -3.0319750602
 H         -0.4357956190       -3.7591952791       -1.3248025103
 H          1.8560400910       -2.8885619890       -0.7420323803
 H          2.0751026808       -2.3128674187       -2.4485653702
 H          0.0463356607       -0.8391433889       -2.2048477799
 O         -1.6276256293        0.9243442109       -1.4184929595
