  62
        -98.94429851
 C          2.1026264538        1.3970162059        0.0192120254
 C          2.4070406012        0.4392750884       -0.9782077926
 C          3.7485707429       -0.1602460968       -0.9076236989
 C          4.5992652987        0.2200576964        0.0618245240
 C          5.9670496538       -0.3559551938        0.2827020469
 C          5.9194682315       -1.5424063313        1.2557332067
 C          4.8473371831       -2.5783176786        0.9168593898
 H          4.9294740756       -3.3830707643        1.6507381644
 H          3.8605572339       -2.1272495209        1.0463795583
 C          4.9545756832       -3.1646604676       -0.4978270988
 H          5.9522163767       -2.9833770449       -0.8994635859
 H          4.8206533921       -4.2469324471       -0.4389010853
 C          3.9087608352       -2.6398998929       -1.4833771721
 H          2.9123397778       -2.7349655604       -1.0436015870
 H          3.9342085167       -3.2731535911       -2.3743867459
 C          4.0972333170       -1.1895193862       -1.9460807294
 H          5.1192424041       -1.0471772197       -2.3024825604
 H          3.4144259878       -1.0166089850       -2.7830152215
 H          6.9002711041       -2.0212968716        1.2643353929
 H          5.7192024099       -1.1597701880        2.2592195877
 H          6.3819496882       -0.6722054013       -0.6723448731
 H          6.6039207692        0.4230503838        0.7051736641
 O          4.2817344628        1.1546027071        0.9923059914
 C          3.0351242347        1.7534972790        1.0003781364
 O          2.8774139641        2.5865571312        1.9148445290
 H         -0.2630152934       -0.2103619168       -0.8337737865
 C         -0.7032082721        0.0633057312        0.1135092919
 C         -0.2818900877        1.2231858605        0.7483803679
 C         -0.8497883565        1.5547028411        1.9729379900
 C         -1.8070522918        0.7387127067        2.5508319590
 C         -2.2174315770       -0.4218638131        1.9201778964
 C         -1.6555996691       -0.7608018533        0.6955380213
 N         -2.0648889414       -1.9366684900        0.0440321996
 S         -3.7073595362       -2.2393960220       -0.0462797412
 O         -4.1570295071       -2.8363145459        1.1873084536
 O         -3.8860039872       -3.0425047406       -1.2354564615
 C         -4.4660374467       -0.6369516224       -0.2494658292
 C         -5.3703296316       -0.1793944217        0.6869216277
 C         -5.9214761454        1.0819276459        0.5263624538
 C         -5.5566429455        1.8611997593       -0.5601773550
 C         -4.6490607652        1.3856289379       -1.4944026738
 C         -4.0964050483        0.1249955054       -1.3403028275
 H         -3.3900884084       -0.2729448708       -2.0513917245
 H         -4.3667676081        1.9927634371       -2.3394946401
 H         -5.9813299975        2.8451219707       -0.6816834419
 H         -6.6288431631        1.4533302575        1.2502163515
 H         -5.6221581757       -0.8169826210        1.5187273499
 H         -1.6087977708       -2.0864366040       -0.8440532687
 H         -2.9522606942       -1.0758351100        2.3612736016
 H         -2.2362394032        1.0070904896        3.5039943378
 H         -0.5234315573        2.4515642165        2.4790201935
 C          0.7621802268        2.1115669660        0.1143386277
 H          0.9305717509        2.9609346777        0.7892677817
 C          0.2813565818        2.6505437282       -1.2199095014
 C         -0.7369339620        3.7488638881       -1.2337199337
 C          0.6788274498        4.0336763030       -1.6348188687
 H          0.8965140954        4.2165430320       -2.6764680304
 H          1.2991158424        4.6001733280       -0.9551988210
 H         -1.4943641950        3.7380391901       -2.0019993769
 H         -1.0797924243        4.1254107443       -0.2820918910
 H          0.2242766824        1.8978638856       -1.9945639558
 O          1.6176275156        0.0814218495       -1.8943636848
