  62
        -98.94441861
 C          1.8349110497        0.0271636002       -0.4318370197
 C          2.9810567397       -0.3656275697       -1.1635902597
 C          4.2684754097        0.1224052005       -0.6525670198
 C          4.2859565197        0.9123799105        0.4366952302
 C          5.5292635396        1.4394156407        1.0917729601
 C          6.0256610698        0.4874138408        2.1889899401
 C          6.1179726100       -0.9724637192        1.7448448701
 H          6.5062411201       -1.5450367291        2.5899869601
 H          5.1122329700       -1.3458965593        1.5388576902
 C          7.0074736800       -1.2075398091        0.5159957201
 H          7.6659159298       -0.3511348690        0.3662773300
 H          7.6425986401       -2.0755646690        0.7049156501
 C          6.2408008299       -1.4895149692       -0.7774323099
 H          5.5113257500       -2.2847423793       -0.6045872398
 H          6.9530212399       -1.8547494192       -1.5220277199
 C          5.5091588797       -0.2903819894       -1.3935991199
 H          6.1983990496        0.5506537107       -1.4918729599
 H          5.1769965397       -0.5819936294       -2.3942466198
 H          7.0056424298        0.8302810509        2.5259960700
 H          5.3361038099        0.5450856307        3.0344718901
 H          6.3017247496        1.5754058908        0.3373278601
 H          5.2973432795        2.4069325207        1.5402654301
 O          3.1620527296        1.2878057104        1.1000441002
 C          1.9098155397        0.8482584402        0.6930219103
 O          0.9682487597        1.2549751701        1.3999469404
 H         -2.1286513802       -0.0734543704       -0.0459840494
 C         -1.7495647804        0.7395471597       -0.6417309095
 C         -0.4537125904        0.7035894598       -1.1329209295
 C         -0.0013306606        1.7741369699       -1.9006088396
 C         -0.8144636508        2.8634185198       -2.1422882096
 C         -2.0980033207        2.9079347096       -1.6270164795
 C         -2.5666590505        1.8382255595       -0.8742983995
 N         -3.8810051505        1.8379527694       -0.3925480194
 S         -4.3384286903        1.0208073293        0.9889559207
 O         -5.6362599304        1.5792470492        1.3086099307
 O         -3.3473812203        1.0927795295        2.0359719606
 C         -4.5596655301       -0.6648049107        0.4581789207
 C         -4.2249923299       -1.6857408206        1.3253123407
 C         -4.4427357998       -2.9980457907        0.9345568408
 C         -4.9876191998       -3.2652369408       -0.3118569992
 C         -5.3186489600       -2.2283619408       -1.1707664592
 C         -5.1090634102       -0.9143335508       -0.7839179393
 H         -5.3561854803       -0.0855762909       -1.4257388293
 H         -5.7404315200       -2.4400062609       -2.1401043592
 H         -5.1524211897       -4.2871847108       -0.6145480692
 H         -4.1861616096       -3.8047556006        1.6031699208
 H         -3.7901077299       -1.4326582506        2.2796012907
 H         -4.3882037306        2.7018847293       -0.5121908494
 H         -2.7315055109        3.7634084195       -1.8051444695
 H         -0.4456580109        3.6897777798       -2.7313072796
 H          1.0048836994        1.7440741400       -2.2962605097
 C          0.4729509398       -0.4608363800       -0.8901880296
 H          0.6546581298       -0.9610557400       -1.8536337096
 C         -0.0774665600       -1.4796148101        0.0857859505
 C         -0.9742532799       -2.5777057002       -0.4005280594
 C          0.4298418502       -2.8880899200        0.0204896005
 H          0.5876326503       -3.4221557700        0.9454966105
 H          1.1575710101       -3.1152539899       -0.7448563195
 H         -1.7856256598       -2.9001296503        0.2340761706
 H         -1.2037581300       -2.6020442603       -1.4548980194
 H         -0.2643686700       -1.0576305601        1.0680978005
 O          2.9281402998       -1.0847627797       -2.1973907397
