  62
        -98.94172280
 C         -1.1086739687       -1.6410947857        0.3372702499
 C         -1.8307673147       -0.7413839847        1.1624278103
 C         -2.9740413064       -0.0611212526        0.5398552197
 C         -3.2405178221       -0.2834718789       -0.7598067682
 C         -4.3514664851        0.3656622570       -1.5324758649
 C         -3.8829213673        1.6639699087       -2.2034797931
 C         -3.1394641706        2.6107445065       -1.2615504118
 H         -2.1979423046        2.1462289009       -0.9599696710
 H         -2.8896462097        3.5057185504       -1.8346270262
 C         -3.9315397605        3.0100206048       -0.0086754768
 H         -3.8302224690        4.0864559753        0.1437258571
 H         -4.9922734952        2.8062567660       -0.1595254325
 C         -3.4638011801        2.3303413810        1.2795602676
 H         -3.9286633035        2.8450426881        2.1246113548
 H         -2.3817929625        2.4383244763        1.3797785852
 C         -3.8041600965        0.8408239236        1.4095337438
 H         -3.5934470791        0.5405170719        2.4402253725
 H         -4.8682623795        0.6854167136        1.2185380955
 H         -4.7558190477        2.1700664025       -2.6199895902
 H         -3.2140552979        1.4052315860       -3.0273746634
 H         -5.1813600566        0.5711154923       -0.8588779645
 H         -4.6857173942       -0.3314317287       -2.3028551403
 O         -2.4891102897       -1.1030742653       -1.5360919590
 C         -1.4052301665       -1.8020887167       -1.0173131250
 O         -0.8170582170       -2.5062245897       -1.8574883041
 O         -1.5365930376       -0.5228027826        2.3682620556
 C          0.0506814523       -2.3927432198        0.9663433636
 C          1.2736640394       -2.3051121923        0.0898900714
 C          1.8423731550       -3.4022066162       -0.5433806038
 C          2.9585114624       -3.2450781002       -1.3452659859
 C          3.5396529884       -2.0022885091       -1.5144215194
 C          2.9795278562       -0.8971910758       -0.8836945038
 C          1.8514893493       -1.0546453855       -0.0954225709
 H          1.4145854214       -0.1916327098        0.3885683691
 N          3.5362069283        0.3815297687       -1.0437066082
 S          3.6345706369        1.4099578690        0.2714781585
 O          4.7102662270        2.3208541595       -0.0610105695
 O          3.7836922909        0.6811658957        1.5093201526
 C          2.1095440689        2.3256944410        0.2633391200
 C          1.4514183851        2.5553546624        1.4547477413
 C          0.3127728315        3.3454941722        1.4510882102
 C         -0.1465023641        3.8873994025        0.2607947569
 C          0.5201287853        3.6382317552       -0.9295458244
 C          1.6624478131        2.8546011145       -0.9314096139
 H          2.2109346517        2.6467140276       -1.8350626063
 H          0.1541783704        4.0552408950       -1.8539718985
 H         -1.0304941659        4.5051764685        0.2609599594
 H         -0.2082093198        3.5332259762        2.3767474854
 H          1.8369091867        2.1085020709        2.3576804159
 H          4.3770127254        0.4101334228       -1.6021908094
 H          4.4151968381       -1.8823618491       -2.1346268161
 H          3.3853265799       -4.1037340054       -1.8412079709
 H          1.3956287531       -4.3759817202       -0.4296087162
 H          0.2661400272       -1.8364569550        1.8944850063
 C         -0.2851004135       -3.8161792570        1.3869874169
 C         -1.6690128708       -4.1806006869        1.8324841050
 C         -1.1254979247       -4.7320887507        0.5503955914
 H         -0.8608155106       -5.7789259593        0.5160070710
 H         -1.5100032260       -4.3491111583       -0.3816499868
 H         -1.7784987348       -4.8457196393        2.6758791925
 H         -2.4290921857       -3.4147940942        1.7784313324
 H          0.5315649740       -4.2740128924        1.9374916910
