  62
        -98.94509011
 C         -0.8819754539       -1.1138915246        0.7428143287
 C         -1.1515787090       -0.4783932390       -0.4947431282
 C         -2.1032287374        0.6409005803       -0.4330994016
 C         -2.5210943817        1.1021466471        0.7577654507
 C         -3.4863309880        2.2345508582        0.9811246262
 C         -4.9595321503        1.8077631635        0.9118069051
 C         -5.4770516075        1.4827742583       -0.4903373060
 H         -6.5642719490        1.4112102881       -0.4202070174
 H         -5.2486077237        2.3110265595       -1.1615859507
 C         -4.9345638885        0.1737554743       -1.0814772452
 H         -4.5149368331       -0.4412583077       -0.2818102393
 H         -5.7569749955       -0.3951220799       -1.5209706936
 C         -3.8784570632        0.3597183108       -2.1714833713
 H         -4.3275039417        0.8576566894       -3.0334827571
 H         -3.5416967411       -0.6290574119       -2.4933745780
 C         -2.6482575974        1.1631587965       -1.7273180610
 H         -2.9065586113        2.2170399730       -1.6362630704
 H         -1.8690129086        1.0497550788       -2.4840506089
 H         -5.5568852828        2.6288564009        1.3149992068
 H         -5.1039022701        0.9426744206        1.5635375070
 H         -3.2879199168        2.6233653813        1.9824738947
 H         -3.3042669180        3.0267642462        0.2546148898
 O         -2.0807609805        0.5819810117        1.9360841215
 C         -1.3037998929       -0.5656273046        1.9560746895
 O         -1.0453751962       -0.9859076306        3.1028934174
 O         -0.6535282235       -0.8230745981       -1.5950207755
 C         -0.0751532418       -2.3974892875        0.8208194146
 C          1.1516452672       -2.3014510155       -0.0502273527
 C          1.3902501017       -3.1220066591       -1.1448184885
 C          2.5435960500       -2.9683621356       -1.8931530725
 C          3.4766268042       -2.0008133518       -1.5695294503
 C          3.2486482120       -1.1782819171       -0.4716464353
 C          2.0954977123       -1.3363226322        0.2791124931
 H          1.9277183371       -0.7015561863        1.1378194201
 N          4.1870637862       -0.2036290562       -0.1048969025
 S          3.7377971854        1.1734484867        0.7093951240
 O          4.8471370379        2.0812821508        0.5014714468
 O          3.4343495985        0.8695374736        2.0861743027
 C          2.2987414172        1.8339847007       -0.1117937388
 C          1.2503064595        2.3037586276        0.6514972129
 C          0.1849549828        2.9251054019        0.0208511992
 C          0.1818708096        3.0551720577       -1.3585512943
 C          1.2320591755        2.5591432629       -2.1139474218
 C          2.3061193413        1.9498111575       -1.4871990155
 H          3.1436071676        1.5722160609       -2.0506136247
 H          1.2196325045        2.6507638853       -3.1879805242
 H         -0.6442880663        3.5458954488       -1.8473398729
 H         -0.6336637842        3.3050134382        0.6109362019
 H          1.2852649771        2.1741274472        1.7225249698
 H          4.9361480663       -0.0448084055       -0.7613948040
 H          4.3741834140       -1.8800255622       -2.1563175853
 H          2.7151356869       -3.6067692477       -2.7464489472
 H          0.6621756791       -3.8642206475       -1.4271630217
 H          0.2656684672       -2.4593974665        1.8679746052
 C         -0.9023917106       -3.6481870869        0.5554987322
 C         -2.3529076933       -3.7043280327        0.9295405651
 C         -1.9507899969       -3.7055982456       -0.5129966799
 H         -2.0620791283       -4.6222432998       -1.0734084236
 H         -2.1208301623       -2.8140456259       -1.0952952813
 H         -2.7367461507       -4.6164846591        1.3611776565
 H         -2.7977728302       -2.8088080816        1.3394417848
 H         -0.3293546214       -4.5542261259        0.7271976836
