  62
        -98.93526191
 C          2.1755916080       -0.8751874003       -0.2676579483
 C          2.7612583179        0.1097551616       -1.1017798340
 C          3.5593564316        1.1430004607       -0.4314051698
 C          3.6361059243        1.1412641641        0.9118042338
 C          4.4486135307        2.1050823215        1.7260239194
 C          5.8640456175        1.5658579707        1.9764446438
 C          6.5654239670        1.0624210131        0.7149195449
 H          7.5653895702        0.7353545219        1.0076035391
 H          6.0361337621        0.1834065001        0.3402029563
 C          6.6761691313        2.1031048050       -0.4080871020
 H          6.5206301744        3.1036225760       -0.0029800045
 H          7.6886185437        2.0721400254       -0.8160156347
 C          5.7177560051        1.8768580501       -1.5787871024
 H          5.8033990909        0.8448687228       -1.9282832102
 H          6.0256593863        2.5276465360       -2.4015196412
 C          4.2384460821        2.1680177287       -1.2957689408
 H          4.1350972816        3.1654783253       -0.8631396454
 H          3.7069354617        2.1530055117       -2.2519856892
 H          6.4585371978        2.3584904440        2.4342955382
 H          5.7976047183        0.7374108579        2.6853128899
 H          4.4980157355        3.0599950621        1.2060505779
 H          3.9483130030        2.2501456279        2.6850321727
 O          3.0072028286        0.2221433894        1.6841878481
 C          2.2676069345       -0.8139369167        1.1244413028
 O          1.7618165310       -1.5765992026        1.9641819150
 H         -0.3745111762       -0.2607651446       -1.8532914162
 C         -0.8246409166       -0.8537151802       -1.0660595113
 C         -0.0669970739       -1.8555868433       -0.4633174943
 C         -0.6538044733       -2.5776643497        0.5683198427
 C         -1.9548918734       -2.3113616826        0.9620621016
 C         -2.7005403988       -1.3199128987        0.3530643692
 C         -2.1204072521       -0.5744638198       -0.6645447108
 N         -2.8607353355        0.4513051968       -1.2841846550
 S         -3.5176530449        1.6284364315       -0.2788209775
 O         -3.6519417359        2.8052955274       -1.1102365340
 O         -2.7454878679        1.7814902386        0.9332107853
 C         -5.1402820507        0.9998429857        0.0988564469
 C         -5.9909107615        0.7225657289       -0.9535278885
 C         -7.2580789490        0.2341324111       -0.6784365912
 C         -7.6519816917        0.0352806229        0.6365895514
 C         -6.7876911461        0.3225044438        1.6819807853
 C         -5.5180191659        0.8104445538        1.4136446534
 H         -4.8093472010        1.0419660652        2.1930602247
 H         -7.0954328036        0.1678492990        2.7036837576
 H         -8.6385391189       -0.3456462664        0.8483232680
 H         -7.9330631351        0.0098527839       -1.4885588819
 H         -5.6465628653        0.8954267753       -1.9594049980
 H         -2.3700320654        0.8878804505       -2.0521272078
 H         -3.7101481515       -1.1090680395        0.6655191472
 H         -2.3902513726       -2.8847998370        1.7663760466
 H         -0.0953866870       -3.3263773067        1.0997044984
 C          1.3578261498       -1.9700847232       -0.9443512977
 H          1.3485907240       -1.6680088820       -2.0038802766
 C          2.0808263029       -3.3091447387       -0.9277948900
 C          2.2678178327       -4.2004257898        0.2615901750
 C          1.3884820277       -4.6374312058       -0.8714266832
 H          1.7476434110       -5.4241571935       -1.5181671647
 H          0.3205704728       -4.6446424820       -0.7233741824
 H          3.2305825274       -4.6796400061        0.3723883844
 H          1.8356778795       -3.9006079379        1.2015288015
 H          2.9411829599       -3.2552523641       -1.5915296717
 O          2.6206183139        0.1240862867       -2.3561021412
