  62
        -98.94086406
 C         -1.8900142004       -1.1277717100        0.1433844390
 C         -2.2671724108       -0.1784402599        1.1285190087
 C         -2.9574528109        1.0251452099        0.6521220184
 C         -3.1537468407        1.1858701196       -0.6687489817
 C         -3.8786227108        2.3410278894       -1.2951187520
 C         -5.3773968207        2.0444235791       -1.4455283223
 C         -6.0315219509        1.5102608192       -0.1712436923
 H         -7.0923460708        1.3661509590       -0.3866829625
 H         -5.6127959607        0.5276892993        0.0579711879
 C         -5.8771207713        2.4240030094        1.0525119576
 H         -5.6033318814        3.4295922794        0.7314467074
 H         -6.8414824014        2.4962232293        1.5595367074
 C         -4.8648293914        1.9303564398        2.0877268278
 H         -4.9924641817        2.5226578899        2.9975253177
 H         -5.0785469912        0.8892009198        2.3417164980
 C         -3.3894991013        2.0327004700        1.6801316881
 H         -2.7831991214        1.8308790503        2.5679888583
 H         -3.1696545114        3.0465109400        1.3386461380
 H         -5.8800297408        2.9611533089       -1.7590660525
 H         -5.5045970104        1.2998120089       -2.2347890322
 H         -3.4489151606        2.5203934193       -2.2823823920
 H         -3.7314190611        3.2280667395       -0.6817601422
 O         -2.7470964704        0.2767228995       -1.5885863915
 C         -2.0979928302       -0.8944300803       -1.2158459611
 O         -1.7782055299       -1.6124279904       -2.1835568509
 O         -2.0391083910       -0.3410348696        2.3573589388
 C         -1.1720203203       -2.3691729898        0.6469973993
 C          0.3107602296       -2.1038518495        0.6948541095
 C          1.0502663494       -2.3097027092        1.8530028097
 C          2.4005645494       -2.0057245389        1.8928058899
 C          3.0355365195       -1.4756484590        0.7832279500
 C          2.3029895997       -1.2667445393       -0.3773970202
 C          0.9578031397       -1.5901489396       -0.4214268104
 H          0.3980694499       -1.4178169798       -1.3297287006
 N          2.9379386698       -0.6568685994       -1.4957878102
 S          2.8345617895        1.0271848706       -1.3953882305
 O          1.5186324993        1.4510039704       -0.9647384708
 O          3.2741588996        1.5267609304       -2.6798199905
 C          4.0377112391        1.4130034510       -0.1447904704
 C          5.3757623292        1.4066137012       -0.4878012401
 C          6.3179646690        1.6706516315        0.4935242300
 C          5.9076723387        1.9305721117        1.7928192899
 C          4.5601089186        1.9328869115        2.1202656297
 C          3.6121286289        1.6715441212        1.1433382795
 H          2.5536021588        1.6608561310        1.3514986093
 H          4.2419848084        2.1335997816        3.1306271496
 H          6.6421584185        2.1334012320        2.5561570100
 H          7.3665459090        1.6713182117        0.2433172902
 H          5.6452913094        1.2035315111       -1.5108876900
 H          2.5082366000       -0.9320366896       -2.3702663602
 H          4.0836687294       -1.2259692388        0.8049420001
 H          2.9610701692       -2.1718512687        2.7995853101
 H          0.5533097093       -2.6917184991        2.7325922297
 H         -1.5181493505       -2.4922358197        1.6855817993
 C         -1.5358735399       -3.6383599300       -0.1090823605
 C         -0.5808893096       -4.3783333900       -0.9926533602
 C         -0.9699801398       -4.9557721498        0.3330004398
 H         -1.6192486396       -5.8175930199        0.3541065298
 H         -0.2302666899       -4.9371006995        1.1190712199
 H         -0.9772413794       -4.8207052202       -1.8938594902
 H          0.4188451103       -3.9892947298       -1.1063310001
 H         -2.5734839999       -3.6355229002       -0.4267840107
