  62
        -98.93451173
 C         -1.6504150833       -0.2260188045        0.3085796361
 C         -2.7591638371       -1.0110772990        0.7169105672
 C         -4.0828400348       -0.3775372912        0.6267681799
 C         -4.1672963961        0.9004469056        0.2162547015
 C         -5.4426159297        1.6627755795       -0.0062055809
 C         -6.0888541569        1.2298640039       -1.3377536237
 C         -7.4337553328        0.5189329312       -1.1846551183
 H         -8.2022990736        1.2599629890       -0.9549239768
 H         -7.6814814144        0.0768705980       -2.1521117326
 C         -7.4957714334       -0.5691734079       -0.1083463095
 H         -7.6185004856       -0.1082048914        0.8728584708
 H         -8.4021888122       -1.1489314133       -0.2951871957
 C         -6.2999701595       -1.5287455368       -0.0539780197
 H         -6.6787802228       -2.5316454592        0.1532508280
 H         -5.7983974394       -1.5728085006       -1.0210798548
 C         -5.2679512839       -1.2046804411        1.0423236073
 H         -5.7708939602       -0.7238652278        1.8859057169
 H         -4.8391604116       -2.1427612859        1.4070865170
 H         -6.2352654264        2.1051255112       -1.9726128628
 H         -5.3879099799        0.5768436638       -1.8622622027
 H         -6.1239545519        1.4903696930        0.8240714672
 H         -5.1868634656        2.7222039882       -0.0343337334
 O         -3.0786761701        1.6385739104       -0.1187967233
 C         -1.7940276502        1.1058675717       -0.0823021247
 O         -0.9085426805        1.9168668040       -0.4088229501
 O         -2.6444522531       -2.1907437563        1.1441873956
 C         -0.2781654500       -0.8727218766        0.3743886819
 C          0.7139488955        0.0469181638        1.0376093497
 C          0.5613725755        0.3348916899        2.3917604497
 C          1.4417298101        1.1802206691        3.0377634824
 C          2.5072405564        1.7388719799        2.3531660701
 C          2.6664385974        1.4602224019        1.0015896739
 C          1.7726866678        0.6192986712        0.3517089888
 H          1.8901676801        0.4595790953       -0.7062793093
 N          3.7337807862        2.0103145939        0.2802740924
 S          4.4490698511        1.1541376961       -0.9574713801
 O          5.7890649987        1.6971785054       -1.0396606795
 O          3.6677219511        1.2391573596       -2.1652380926
 C          4.5150513119       -0.5384496974       -0.3927016981
 C          3.9840829366       -1.5398230778       -1.1793566680
 C          4.0373743366       -2.8492600000       -0.7282761198
 C          4.6162247516       -3.1327428481        0.4987693885
 C          5.1517423430       -2.1165602427        1.2753169689
 C          5.1039428592       -0.8066037200        0.8272855091
 H          5.5187780211        0.0029832053        1.4050494363
 H          5.6038880653       -2.3411712441        2.2278192359
 H          4.6510251869       -4.1517714586        0.8503451627
 H          3.6236676359       -3.6409470915       -1.3327781249
 H          3.5369945693       -1.2735841649       -2.1240153547
 H          4.3993830227        2.5402305875        0.8220096234
 H          3.1985892741        2.3981562493        2.8554911849
 H          1.3047059694        1.4014946044        4.0855004903
 H         -0.2688476817       -0.1046660185        2.9276819681
 H         -0.4228173791       -1.7451985264        1.0332738331
 C          0.2221418671       -1.4150591483       -0.9557205709
 C         -0.7282892244       -1.9455283409       -1.9854945842
 C          0.0316939052       -0.6814119935       -2.2478238350
 H          0.8341756155       -0.6963488939       -2.9716695273
 H         -0.4983432240        0.2580383069       -2.2183507780
 H         -0.4528685742       -2.8359926389       -2.5300013985
 H         -1.7854925745       -1.8700468727       -1.7765377773
 H          1.1570584778       -1.9551467698       -0.8390020729
