  62
        -98.93876759
 C         -2.4246985516       -0.3213711064        0.2081064700
 C         -1.5124153939        0.2516405653       -0.7068791767
 C         -1.1944853558        1.6803606573       -0.5281482244
 C         -1.7479074658        2.3521552464        0.4957103958
 C         -1.5041215671        3.7652355530        0.9655993371
 C         -1.2583238203        4.8623044903       -0.0790417623
 C          0.2085474238        5.2855269590       -0.1961177216
 H          0.2440185274        6.3167683814       -0.5550607411
 H          0.6521034477        5.2723176867        0.8019010844
 C          1.0694032712        4.4434474444       -1.1356897726
 H          2.1023956767        4.7823233147       -1.0284522835
 H          0.7685081371        4.6317175197       -2.1685223267
 C          1.0218685955        2.9354862840       -0.8879991063
 H          1.9149680735        2.4893696055       -1.3326736375
 H          1.0619543210        2.7139581824        0.1804091946
 C         -0.2112847962        2.2586589618       -1.5075121813
 H         -0.7266675388        2.9542460106       -2.1738063133
 H          0.1059034730        1.4131794227       -2.1238571398
 H         -1.8296666676        5.7378833267        0.2348179520
 H         -1.6490287355        4.5538819200       -1.0465210593
 H         -2.3863592907        4.0169133645        1.5603518966
 H         -0.6633502211        3.7268777048        1.6660128631
 O         -2.6358145971        1.7644467309        1.3496728296
 C         -2.9622488185        0.4251396175        1.2564259188
 O         -3.7315285744        0.0199948727        2.1528093601
 H         -0.5792630868       -1.3689995178        1.7227404364
 C         -0.3745688683       -2.1396648346        0.9931251972
 C         -1.3755133184       -2.5362098555        0.1135737375
 C         -1.0895683712       -3.5343674703       -0.8075891583
 C          0.1756056554       -4.0960755833       -0.8589521275
 C          1.1845358407       -3.6552063471       -0.0223337723
 C          0.9058898177       -2.6571120178        0.9052710965
 N          1.8999977678       -2.1430216250        1.7637369676
 S          2.2872884605       -0.5158745967        1.6401833128
 O          3.2921872837       -0.2951199679        2.6590496306
 O          1.0974221265        0.2897350256        1.7373754718
 C          3.0475884120       -0.3461729908        0.0342036425
 C          2.2686009202       -0.4644582886       -1.0993383626
 C          2.8828159995       -0.3783334493       -2.3399614236
 C          4.2515820301       -0.1777170850       -2.4271090996
 C          5.0191077293       -0.0630102443       -1.2776881806
 C          4.4141504082       -0.1525848651       -0.0346432266
 H          4.9683588230       -0.0698557492        0.8863319585
 H          6.0835017242        0.0944258202       -1.3456969006
 H          4.7210724264       -0.1097020124       -3.3958302606
 H          2.2783203603       -0.4688328241       -3.2284470648
 H          1.2031195461       -0.6102965116       -1.0138491557
 H          2.7550559500       -2.6826028555        1.7662371852
 H          2.1793305476       -4.0696147566       -0.0884851244
 H          0.3851315319       -4.8707498368       -1.5807279390
 H         -1.8476431791       -3.8561024643       -1.5026118436
 C         -2.6999069788       -1.8173687106        0.2180510308
 H         -3.1131346195       -2.0186007562        1.2209625574
 C         -3.7413626183       -2.2916277398       -0.7828982885
 C         -4.7919398275       -1.3551365600       -1.2992219536
 C         -3.7262226149       -1.8661058151       -2.2190802837
 H         -4.0058800082       -2.5912297808       -2.9694058823
 H         -2.9447079666       -1.1914023469       -2.5284766621
 H         -4.7416443406       -0.3246097507       -0.9775224838
 H         -5.7989434123       -1.7275345613       -1.4142388744
 H         -4.0667775319       -3.3069518246       -0.5775832275
 O         -0.9577775911       -0.3995300688       -1.6315189847
