  62
        -98.93468385
 C          2.5555466494        0.4893601380        0.3882694126
 C          2.8997079471       -0.8758597025        0.2114385175
 C          4.1978726687       -1.1501868703       -0.4161983909
 C          4.9659381101       -0.1172979629       -0.8071083423
 C          6.3325278287       -0.2438898312       -1.4143663801
 C          7.4247728341       -0.2118813179       -0.3362274611
 C          7.1659166681       -1.1623189461        0.8327339320
 H          8.0147858284       -1.0779274241        1.5147360689
 H          6.2812910455       -0.8243324151        1.3773292054
 C          6.9794624482       -2.6310444556        0.4270787963
 H          7.3730253140       -2.7907555146       -0.5773765574
 H          7.5605836162       -3.2582737007        1.1063633270
 C          5.5337436549       -3.1276527958        0.4894542271
 H          5.1048553684       -2.8849851414        1.4649683629
 H          5.5445798163       -4.2170929454        0.3988189651
 C          4.5944664414       -2.5884888099       -0.5969815308
 H          3.6648976501       -3.1631022427       -0.5485726529
 H          5.0425164543       -2.7431919242       -1.5807344932
 H          7.4926118493        0.8048996801        0.0575329811
 H          8.3792622181       -0.4591743244       -0.8044078349
 H          6.3891137472       -1.1738310946       -1.9768795261
 H          6.4839229954        0.5935028732       -2.0976065938
 O          4.5955560163        1.1766151975       -0.6470857709
 C          3.3893282296        1.5214844494       -0.0452305457
 O          3.2067992285        2.7495950875        0.0293245473
 O          2.1519004123       -1.8238810464        0.5746057631
 C          1.2232912031        0.7660186971        1.0611839497
 C          0.1142430956        0.8972644390        0.0476144247
 C          0.2405558432        1.7301663891       -1.0592985193
 C         -0.7946652002        1.8471517024       -1.9692140881
 C         -1.9707542037        1.1386292454       -1.7980757006
 C         -2.1077358927        0.3036043843       -0.6973613571
 C         -1.0677720202        0.1914088328        0.2180763246
 H         -1.1719462792       -0.4700999504        1.0676097534
 N         -3.2925438616       -0.4338243424       -0.5269461072
 S         -4.7512022387        0.3749501297       -0.8061966132
 O         -5.0074554316        0.3784672530       -2.2244070988
 O         -4.7247063623        1.6703422153       -0.1650362786
 C         -5.9050041286       -0.7055319307        0.0152465108
 C         -6.2896933170       -0.4218868876        1.3120196865
 C         -7.1701829627       -1.2796371344        1.9523313063
 C         -7.6458670254       -2.4011127917        1.2895442288
 C         -7.2505638115       -2.6720720221       -0.0121282628
 C         -6.3712386695       -1.8182794379       -0.6587828474
 H         -6.0440317177       -1.9832445791       -1.6720201008
 H         -7.6250906497       -3.5435488928       -0.5244311013
 H         -8.3315668905       -3.0665647336        1.7898515301
 H         -7.4817903319       -1.0700029624        2.9629362019
 H         -5.9027221150        0.4666135333        1.7848802449
 H         -3.3118346604       -0.9302634358        0.3535783722
 H         -2.7849347177        1.2267096402       -2.4992375108
 H         -0.6854754181        2.4996892576       -2.8228347243
 H          1.1531330220        2.2911648374       -1.1938483743
 H          1.0184883241       -0.1413057468        1.6519220408
 C          1.2700341582        1.9349739532        2.0355891768
 C          0.6087475157        3.2534782127        1.7861778121
 C          0.0441026321        2.3187855789        2.8107931999
 H          0.1483510034        2.5676892605        3.8558917432
 H         -0.8789768694        1.8154709956        2.5642899558
 H          1.1264257724        4.1414729696        2.1148630541
 H          0.0648258398        3.3874141538        0.8643372739
 H          2.2127335955        1.9708831857        2.5724177989
