  62
        -98.94476503
 C          1.8247963371       -0.0755244070       -0.1685297781
 C          2.8543783902       -0.8006264071       -0.8150739988
 C          4.1863058541       -0.1868971824       -0.7811663064
 C          4.3552774894        1.0074239504       -0.1848901441
 C          5.6470435661        1.7733635913       -0.0898027286
 C          6.5447731284        1.3397169093        1.0771947647
 C          7.2312781421       -0.0153616757        0.9010016035
 H          7.7473807184       -0.0374103163       -0.0593029755
 H          7.9913281410       -0.0929063126        1.6810238700
 C          6.2882538284       -1.2218417248        1.0091385466
 H          5.3554530501       -0.9134951297        1.4870326534
 H          6.7404153895       -1.9808730073        1.6515284764
 C          5.9619401529       -1.8931958812       -0.3249374909
 H          5.2593822315       -2.7084897805       -0.1347660728
 H          6.8709854526       -2.3240202874       -0.7503258209
 C          5.3318378962       -0.9575668671       -1.3649971272
 H          6.0841261525       -0.2782569341       -1.7651259674
 H          4.9396058783       -1.5678855006       -2.1821102039
 H          7.3181442168        2.1024740203        1.1939914302
 H          5.9474747866        1.3300236987        1.9919452292
 H          6.1973198538        1.6832541470       -1.0268026373
 H          5.3761532722        2.8213510655        0.0554781926
 O          3.3330859951        1.6859823691        0.4016691500
 C          2.0502249645        1.1569821839        0.4441832290
 O          1.2215878500        1.8719449517        1.0391491900
 O          2.6669360535       -1.9019639348       -1.3976731559
 C          0.4255212612       -0.6646012842       -0.1331760058
 C         -0.5534341263        0.2951867629       -0.7595652197
 C         -0.2855085830        0.7724158520       -2.0413508340
 C         -1.1316354745        1.6761878096       -2.6513786982
 C         -2.2727279358        2.1150455531       -2.0020570919
 C         -2.5549272388        1.6384150592       -0.7283315026
 C         -1.7035064776        0.7252285129       -0.1177460801
 H         -1.9385341535        0.3877970190        0.8775875968
 N         -3.7002917020        2.0719362684       -0.0487130788
 S         -4.5298910593        1.0588296526        0.9791885073
 O         -5.8625200223        1.6223297157        1.0364247327
 O         -3.8491160095        0.9382635914        2.2438226406
 C         -4.5815477523       -0.5288148578        0.1641380935
 C         -4.3089332785       -1.6662971082        0.8951160054
 C         -4.3641316959       -2.9005208234        0.2672506122
 C         -4.6891117555       -2.9749244163       -1.0778996159
 C         -4.9668373497       -1.8233856072       -1.7985794519
 C         -4.9165904689       -0.5876682901       -1.1743703909
 H         -5.1343530438        0.3207103952       -1.7115770959
 H         -5.2209817095       -1.8846973300       -2.8444630168
 H         -4.7267465392       -3.9354959244       -1.5670228617
 H         -4.1508096860       -3.7960459510        0.8288090114
 H         -4.0546377054       -1.5612098121        1.9372758116
 H         -4.3124437836        2.6810879507       -0.5698087153
 H         -2.9312413840        2.8302023560       -2.4709798007
 H         -0.9044709877        2.0430406789       -3.6409430673
 H          0.6080744066        0.4318913195       -2.5464647695
 H          0.4741260592       -1.5660142748       -0.7621383107
 C          0.0701180050       -1.0773943407        1.2789112486
 C         -0.8857839034       -2.2056712197        1.5188316348
 C          0.5756371982       -2.3912359075        1.7927778172
 H          0.9072160476       -2.4513882921        2.8186335618
 H          1.1522770975       -2.9992553149        1.1110814577
 H         -1.5578067325       -2.1342842117        2.3604681219
 H         -1.3083783704       -2.6945773294        0.6543447562
 H          0.0590407198       -0.2414100464        1.9702532999
