  62
        -98.93946182
 C          1.9044167512        0.8402667518        0.2256708883
 C          2.3049070939       -0.1675267677        1.1380778265
 C          2.7887422524       -1.4198637565        0.5483760894
 C          2.7517370545       -1.5839094018       -0.7859702660
 C          3.1868289203       -2.8109391033       -1.5405587777
 C          4.6955316199       -2.8695990818       -1.8180844510
 C          5.5706816466       -3.1700286992       -0.6004932804
 H          5.1987470219       -4.0641825647       -0.0994459930
 H          6.5712192069       -3.3968450067       -0.9737745430
 C          5.6707781594       -2.0171354807        0.4081364866
 H          5.3439075114       -1.0889847321       -0.0666603944
 H          6.7139660370       -1.8770787226        0.6998543565
 C          4.8662139324       -2.2254539241        1.6914284311
 H          4.9793108793       -1.3355705778        2.3161356363
 H          5.2692075779       -3.0775259311        2.2431210110
 C          3.3659698897       -2.4558465513        1.4649091107
 H          3.1928819319       -3.4553833201        1.0661715100
 H          2.8533423360       -2.3698809195        2.4264120543
 H          4.8592430568       -3.6553877970       -2.5589893246
 H          5.0047096647       -1.9216800937       -2.2644526011
 H          2.8788133135       -3.7034874501       -0.9950703387
 H          2.6594755789       -2.7894225356       -2.4966696502
 O          2.2818118515       -0.6244817335       -1.6254130135
 C          1.8597500257        0.6110398781       -1.1500937965
 O          1.4786665780        1.3878406777       -2.0458138081
 O          2.2601732465       -0.0253632084        2.3907136161
 C          1.4136441650        2.1560580228        0.7997459608
 C          0.1041986870        2.5515515736        0.1627273118
 C         -0.1543674562        3.8114490466       -0.3593168595
 C         -1.3923398071        4.0990709163       -0.9087886242
 C         -2.3909912963        3.1456228837       -0.9491875967
 C         -2.1376685471        1.8748368573       -0.4404615091
 C         -0.9045560322        1.5958014343        0.1217996932
 H         -0.7176581102        0.6090567961        0.5229278309
 N         -3.1160930013        0.8711703181       -0.5233537825
 S         -3.0556197272       -0.4700757299        0.4873703918
 O         -2.9492752223       -0.0570527938        1.8701033162
 O         -2.0396112080       -1.3749930495        0.0079845272
 C         -4.6720430477       -1.1578352130        0.1818489195
 C         -5.7068787691       -0.8702521024        1.0518570315
 C         -6.9671258040       -1.3837567141        0.7884164099
 C         -7.1708153290       -2.1701793898       -0.3354579428
 C         -6.1221071578       -2.4521987843       -1.1984372473
 C         -4.8595569266       -1.9422584965       -0.9404961415
 H         -4.0122015228       -2.1407079312       -1.5762412173
 H         -6.2827555421       -3.0668771258       -2.0693937676
 H         -8.1521592092       -2.5686369373       -0.5388368057
 H         -7.7830481720       -1.1692928557        1.4595339642
 H         -5.4982873420       -0.2625412627        1.9175757550
 H         -4.0533989610        1.2275268264       -0.6448800616
 H         -3.3527988955        3.3706922435       -1.3837191265
 H         -1.5803116095        5.0823327807       -1.3127716609
 H          0.6159659861        4.5647162308       -0.3534183674
 H          1.2063748144        1.9264729983        1.8601226230
 C          2.4550728610        3.2661143667        0.7934741784
 C          3.9193667569        2.9549333945        0.7181080337
 C          3.2344245419        3.6180321337       -0.4369974702
 H          3.4483743656        4.6593957175       -0.6282011970
 H          3.0437011298        3.0382418964       -1.3262507171
 H          4.5982822596        3.5383678625        1.3219062233
 H          4.2064134069        1.9181144178        0.6165128264
 H          2.1771159191        4.0878997245        1.4463078534
