  62
        -98.93382177
 C         -2.3967801804       -1.1006229001        0.3171057698
 C         -2.4123946303        0.1185143298        1.0393325599
 C         -3.4940733703        1.0762571699        0.7387838500
 C         -4.4120909504        0.7410095599       -0.1865198800
 C         -5.5872893504        1.5437555200       -0.6794287898
 C         -5.1785350904        2.6731159601       -1.6371676198
 C         -3.9717778804        3.4905433900       -1.1848620998
 H         -3.7272532604        4.1930287301       -1.9860697597
 H         -3.1126915304        2.8275602600       -1.0640247898
 C         -4.1755859803        4.2961309799        0.0961844103
 H         -5.0251214203        4.9699030099       -0.0350676496
 H         -3.2824196203        4.9104142999        0.2366161403
 C         -4.3923513303        3.4810699098        1.3735428303
 H         -5.4121518403        3.1113143798        1.4385639503
 H         -4.2538009003        4.1602155498        2.2197783203
 C         -3.4070337403        2.3331672398        1.5705647101
 H         -3.4637107203        1.9978409897        2.6133730301
 H         -2.3839946903        2.7087354098        1.4478465201
 H         -6.0362767204        3.3331726701       -1.7769659897
 H         -4.9344308504        2.2257198701       -2.6036626498
 H         -6.1505999803        1.9360528799        0.1619767602
 H         -6.2342699904        0.8481407200       -1.2183752199
 O         -4.3612119104       -0.4447653200       -0.8545146300
 C         -3.3717647004       -1.3865575600       -0.6381656701
 O         -3.4942973304       -2.4059315700       -1.3445572402
 O         -1.5553075503        0.4029214898        1.9213810899
 C         -1.2778071304       -2.0782115701        0.6348369197
 C         -0.1924932504       -2.0191352701       -0.4140776503
 C         -0.3780419604       -2.5397517600       -1.6908541803
 C          0.6357905895       -2.4654084399       -2.6281331304
 C          1.8471105695       -1.8749557999       -2.3149028204
 C          2.0445403296       -1.3546863200       -1.0407943303
 C          1.0255361796       -1.4309848401       -0.1015192003
 H          1.1819405997       -1.0070661602        0.8794907397
 N          3.2847593496       -0.7941526801       -0.6892266403
 S          3.3406289597        0.5007326299        0.3916480097
 O          3.1596222597       -0.0023794602        1.7296691697
 O          2.4422048296        1.5496794699       -0.0375703701
 C          5.0373743296        1.0042205699        0.1722249297
 C          6.0285983497        0.2287767798        0.7443299596
 C          7.3532328897        0.5898083598        0.5578549496
 C          7.6636363096        1.7145111799       -0.1925313503
 C          6.6584003496        2.4845118399       -0.7575575502
 C          5.3310160596        2.1274639699       -0.5768194202
 H          4.5158633896        2.6984835400       -0.9916630501
 H          6.9023964496        3.3602064400       -1.3371104202
 H          8.6954532496        1.9940346399       -0.3355834703
 H          8.1372812797       -0.0049705702        0.9978973295
 H          5.7387114997       -0.6300629302        1.3267635196
 H          3.8713246196       -0.6181379800       -1.4941315004
 H          2.6360415295       -1.8189356499       -3.0496142704
 H          0.4787309595       -2.8683752798       -3.6173550404
 H         -1.3298789705       -2.9773486599       -1.9474168603
 H         -0.8428095203       -1.7148041002        1.5764628497
 C         -1.7646486104       -3.4981305301        0.8487631396
 C         -0.8845540703       -4.4578257702        1.5896970895
 C         -2.1385037103       -3.9432805202        2.2290900896
 H         -2.9750102303       -4.6161097902        2.3437783496
 H         -2.0449298803       -3.2224939503        3.0286918797
 H         -0.8570032504       -5.4867472702        1.2659423395
 H          0.0604764697       -4.0845491602        1.9556795395
 H         -2.3543254904       -3.8826441501        0.0272679896
