  62
        -98.93759640
 C         -1.8453623606       -0.8902782027       -0.2960920038
 C         -2.9612080839       -1.1942168192        0.5233121546
 C         -4.2524732032       -0.6316659991        0.1032362446
 C         -4.3036564510        0.1321151010       -1.0032434768
 C         -5.5223073492        0.8471034135       -1.5135933127
 C         -5.7807749190        2.1136577575       -0.6726481130
 C         -7.0772128499        2.0788321136        0.1369582310
 H         -7.0446106980        2.9123267210        0.8418975105
 H         -7.9203437271        2.2495723879       -0.5357949945
 C         -7.3481121285        0.7834585947        0.9082031396
 H         -7.7437485922        0.0274257536        0.2283078832
 H         -8.1415369266        1.0015014037        1.6262639467
 C         -6.1516751838        0.1884041114        1.6618845113
 H         -5.4179001088        0.9616236017        1.8907927446
 H         -6.5117515356       -0.2004200607        2.6165742692
 C         -5.4543453078       -0.9784890270        0.9378468592
 H         -5.0795360061       -1.6800154623        1.6889117939
 H         -6.1831557786       -1.5138069250        0.3230054290
 H         -4.9329406085        2.2568712650        0.0008072864
 H         -5.8103716473        2.9858087891       -1.3276390234
 H         -6.3817119672        0.1813049806       -1.4770037675
 H         -5.3309167914        1.1141843704       -2.5530957346
 O         -3.2104915872        0.4091798611       -1.7589350806
 C         -1.9567518375       -0.0868474535       -1.4304048794
 O         -1.0562592536        0.2517769541       -2.2218807329
 O         -2.8794842326       -1.9082796747        1.5580659596
 C         -0.4893324175       -1.4409294931        0.1142921396
 C          0.3743467899       -0.2938276205        0.5746714270
 C          0.2326295802        0.1908247786        1.8718400075
 C          0.9885682425        1.2602890373        2.3153628217
 C          1.8980425676        1.8747090439        1.4715727216
 C          2.0385493958        1.4038034741        0.1737025862
 C          1.2908779799        0.3197602440       -0.2653911654
 H          1.4030619583       -0.0261529618       -1.2807004665
 N          2.9709223108        2.0232926828       -0.6890011926
 S          4.5779847441        1.8332547471       -0.2551220053
 O          4.8312008556        2.5878366005        0.9456868881
 O          5.3492883442        2.2032263739       -1.4198824579
 C          4.7393487307        0.0875517546        0.0714860017
 C          5.0285623482       -0.7587192595       -0.9802554094
 C          5.0687059120       -2.1242170399       -0.7503189655
 C          4.8056945022       -2.6180243969        0.5182635383
 C          4.5136070038       -1.7548763676        1.5628968220
 C          4.4783893041       -0.3875925464        1.3409956562
 H          4.2593983639        0.3155971541        2.1275405090
 H          4.3091429136       -2.1412495948        2.5484732619
 H          4.8288646134       -3.6821233883        0.6931885575
 H          5.3001368048       -2.7981597880       -1.5596349382
 H          5.2289351097       -0.3331599938       -1.9506543675
 H          2.8472379463        1.7502384558       -1.6541339371
 H          2.5048271520        2.7035723765        1.7989283419
 H          0.8684848076        1.6216338044        3.3255224118
 H         -0.4866457965       -0.2800428507        2.5273378478
 H         -0.6909686661       -2.0833062570        0.9817756533
 C          0.1504259281       -2.2766948775       -0.9748792110
 C          1.3554936924       -3.1039960222       -0.6428690672
 C          0.0412277698       -3.7695253539       -0.9166935266
 H         -0.0808118623       -4.3118658970       -1.8422907972
 H         -0.4985666157       -4.1991939089       -0.0857899494
 H          2.1410838006       -3.1897037225       -1.3776268888
 H          1.7103695319       -3.0752454891        0.3760464357
 H          0.1048726381       -1.8158509835       -1.9540223723
