  62
        -98.93737906
 C         -1.8474786476       -1.4322643966        0.3291281648
 C         -2.5414185289       -0.8537286573       -0.7603983320
 C         -3.7327886339       -0.0597858852       -0.4166059538
 C         -4.0834728602        0.0748439302        0.8752840045
 C         -5.2174734401        0.9161874849        1.3884144551
 C         -4.8116417781        2.4040407800        1.3858702207
 C         -5.6113882146        3.2741208568        0.4160207525
 H         -5.1005974118        4.2367886545        0.3434531328
 H         -6.6016595811        3.4577419671        0.8380923896
 C         -5.8010516689        2.7028711091       -0.9925646726
 H         -6.1421395294        3.5252076086       -1.6250573266
 H         -6.6035827375        1.9638359014       -0.9840375074
 C         -4.5591180827        2.0710340025       -1.6348615413
 H         -3.6477418700        2.4837770487       -1.2009957924
 H         -4.5527547154        2.3366183947       -2.6940081102
 C         -4.5096268645        0.5334074631       -1.5591328365
 H         -4.0126459463        0.1570269271       -2.4582609484
 H         -5.5281938688        0.1355340501       -1.5547236345
 H         -3.7489231219        2.4695273318        1.1418337993
 H         -4.9283126706        2.8154273268        2.3897221110
 H         -6.1001822269        0.7590039687        0.7727472234
 H         -5.4355288816        0.5840494927        2.4036489572
 O         -3.3804076316       -0.4846702129        1.8948134529
 C         -2.2465373509       -1.2428532788        1.6509789943
 O         -1.6865219735       -1.6783738321        2.6780762320
 H          0.1759791509        0.1716993105        0.7674512236
 C          0.7248113769       -0.1744022487       -0.1003573277
 C          0.4468223774       -1.4354340454       -0.6146804014
 C          1.1711566677       -1.8745463331       -1.7145365370
 C          2.1215709261       -1.0555412817       -2.3009580385
 C          2.3776285780        0.2074602044       -1.8014284109
 C          1.6732950465        0.6481615173       -0.6873975649
 N          1.9394283620        1.9220917336       -0.1571787222
 S          3.5404000490        2.3801995712        0.0112952661
 O          3.5508609587        3.3219162311        1.1089240584
 O          4.0372064068        2.8778652923       -1.2472609333
 C          4.4130396022        0.8884795015        0.4552909501
 C          5.4213816995        0.4117687592       -0.3571977853
 C          6.0645027528       -0.7647389013       -0.0070384516
 C          5.6865297198       -1.4428045575        1.1411906934
 C          4.6735126718       -0.9491838528        1.9492940351
 C          4.0291297096        0.2278570574        1.6055621903
 H          3.2406015576        0.6385840309        2.2161766263
 H          4.3795193483       -1.4773111760        2.8422962380
 H          6.1835243094       -2.3613099737        1.4105410012
 H          6.8538565943       -1.1500112211       -0.6319942768
 H          5.6802618689        0.9689816741       -1.2427341953
 H          1.4054747475        2.1429709455        0.6699680219
 H          3.1004714574        0.8633479591       -2.2587746607
 H          2.6679035900       -1.4050061511       -3.1634404922
 H          0.9848061221       -2.8545819155       -2.1210933758
 C         -0.6052181171       -2.2681823202        0.0779448560
 H         -0.2196450489       -2.5422381059        1.0709906056
 C         -0.9675345672       -3.5345991510       -0.6690983648
 C         -0.1559076085       -4.7800505313       -0.4815910693
 C         -1.5332560927       -4.6884232372        0.1012006709
 H         -2.3257058395       -5.2688816160       -0.3468800369
 H         -1.6325634040       -4.5690267681        1.1706020537
 H          0.6833722862       -4.7331262155        0.1955098885
 H         -0.0037553771       -5.4292631383       -1.3305439420
 H         -1.3855398548       -3.3345679828       -1.6487560703
 O         -2.1866793275       -0.9918449993       -1.9596246675
