  62
        -98.93971879
 C         -2.2707583406       -0.9222882021        0.6478165534
 C         -3.4016451918       -0.8445705539       -0.2018728170
 C         -4.3506183335        0.2420205555        0.0881799903
 C         -4.1062469000        1.0855104282        1.1062347217
 C         -4.9571043526        2.2680177997        1.4669475108
 C         -4.4857063395        3.5358099258        0.7409522279
 C         -4.2784368143        3.3471622592       -0.7619623165
 H         -3.9768553124        4.3136936679       -1.1716150249
 H         -3.4457927141        2.6578796636       -0.9223942361
 C         -5.5143736463        2.8350187227       -1.5148049685
 H         -5.6322246630        3.4179139188       -2.4306490318
 H         -6.4082438156        2.9955781211       -0.9110528685
 C         -5.4397427517        1.3643109315       -1.9287014888
 H         -4.4985718257        1.1784123370       -2.4521582952
 H         -6.2516792311        1.1680386436       -2.6338646645
 C         -5.5664994725        0.3448197115       -0.7899134000
 H         -6.4533728532        0.5669932494       -0.1934282202
 H         -5.6932493612       -0.6431263499       -1.2416825608
 H         -3.5363942295        3.8528050376        1.1794700046
 H         -5.2200637625        4.3248709531        0.9130038576
 H         -4.8833176479        2.4280358342        2.5439193758
 H         -5.9930416093        2.0542670839        1.2109941729
 O         -3.0141105770        0.9775560704        1.9065548066
 C         -2.0778190685       -0.0196357964        1.6984805579
 O         -1.1336909758       -0.0076233581        2.5157852582
 O         -3.6338950992       -1.6314632413       -1.1567864562
 C         -1.1859454342       -1.9773023376        0.4903897204
 C         -0.2312299679       -1.5997673347       -0.6176938625
 C         -0.6148260213       -1.6250247546       -1.9547349214
 C          0.2814389595       -1.2657027990       -2.9443479746
 C          1.5699205213       -0.8766777000       -2.6240624229
 C          1.9648196379       -0.8519548837       -1.2912965774
 C          1.0633679256       -1.2131437582       -0.2997484577
 H          1.3733460938       -1.1703381785        0.7340766549
 N          3.2835933245       -0.5044168004       -0.9484560656
 S          3.5693328523        0.3481281976        0.4806241978
 O          3.5061114800       -0.5698350342        1.5896345118
 O          2.7126091241        1.5115518247        0.5466990152
 C          5.2635993791        0.8363215007        0.2113337449
 C          5.5521163776        2.1294992759       -0.1806608617
 C          6.8731411052        2.4812351135       -0.4112975445
 C          7.8769399801        1.5383345953       -0.2499328028
 C          7.5718937099        0.2439511310        0.1448108896
 C          6.2538499982       -0.1136071691        0.3788710282
 H          5.9693924079       -1.1032359444        0.6960023204
 H          8.3551173567       -0.4857964043        0.2718933243
 H          8.9037733225        1.8146697522       -0.4302015720
 H          7.1133190946        3.4875557050       -0.7144823664
 H          4.7392771948        2.8300446640       -0.2863047736
 H          3.7850201799       -0.0878171620       -1.7219243485
 H          2.2671187423       -0.5958901273       -3.3990291325
 H         -0.0286705970       -1.2838074520       -3.9783353765
 H         -1.6257059513       -1.9053166258       -2.2061353405
 H         -0.6191727850       -1.9573167948        1.4317715399
 C         -1.7351694230       -3.3772668134        0.2947009652
 C         -0.8469156247       -4.5464815848        0.5902671642
 C         -1.9993911555       -4.2321142616        1.4954605094
 H         -2.8597526982       -4.8842073670        1.4838969083
 H         -1.7851187040       -3.8090049093        2.4666523168
 H         -0.9136039362       -5.4175118565       -0.0431353566
 H          0.1501806061       -4.3363049398        0.9484027345
 H         -2.4235767887       -3.4610165774       -0.5351225490
