  62
        -98.94477586
 C         -1.8107362691       -1.0873981555       -0.1166323851
 C         -2.9861011464       -1.1326502283        0.6812068619
 C         -4.1917353116       -0.5301647278        0.1051197478
 C         -4.1440930212        0.0007452177       -1.1297018729
 C         -5.2926799637        0.6273146434       -1.8721840918
 C         -5.5367188825        2.1001361512       -1.5160402314
 C         -6.1474895223        2.3425285679       -0.1352081922
 H         -6.4657256922        3.3865247835       -0.1047625810
 H         -7.0403238681        1.7269856065       -0.0210264630
 C         -5.1886720252        2.0850939936        1.0358389289
 H         -4.1599307815        2.0653354011        0.6680194402
 H         -5.2554403769        2.9097983109        1.7490742208
 C         -5.4627192888        0.7948621517        1.8088901568
 H         -4.7034647898        0.6962984636        2.5889579356
 H         -6.4386791023        0.8596839644        2.2949686283
 C         -5.4282906071       -0.4761091808        0.9500882906
 H         -6.3191753096       -0.5318792618        0.3248096458
 H         -5.4132122034       -1.3409297504        1.6177818374
 H         -4.5906846300        2.6409155429       -1.5957869318
 H         -6.2166952231        2.5086096831       -2.2672378883
 H         -5.0467658463        0.5662838925       -2.9345713571
 H         -6.2019671108        0.0530731238       -1.6923786875
 O         -3.0079420096        0.0080154247       -1.8721466317
 C         -1.8144520078       -0.5069180154       -1.3848491284
 O         -0.8647650251       -0.3789097692       -2.1854411749
 O         -3.0243761606       -1.6642454284        1.8222818637
 C         -0.5624140952       -1.7077359021        0.4878463021
 C          0.3634031517       -0.6675206165        1.0713756020
 C          0.7192591165       -0.6958048915        2.4143844671
 C          1.6022362727        0.2370460770        2.9313833881
 C          2.1467138152        1.2169754735        2.1208506966
 C          1.7895804320        1.2571964990        0.7796161923
 C          0.9119987415        0.3171065670        0.2619152310
 H          0.6433884355        0.3532260805       -0.7834283965
 N          2.3529871716        2.2427586738       -0.0625528335
 S          4.0154949333        2.1177342378       -0.2519653414
 O          4.6602438974        2.6014061384        0.9427700527
 O          4.3288974294        2.8226211773       -1.4743221661
 C          4.3052268566        0.3679015619       -0.4365226474
 C          4.0189534754       -0.2170017020       -1.6537695078
 C          4.1659657392       -1.5876042116       -1.7896285066
 C          4.5848485307       -2.3459699510       -0.7072619574
 C          4.8616667717       -1.7444020523        0.5103844774
 C          4.7193425596       -0.3735808579        0.6512934760
 H          4.9265845260        0.1347015133        1.5784429997
 H          5.1829958729       -2.3388311021        1.3501689426
 H          4.7001654369       -3.4132041651       -0.8152712985
 H          3.9475116357       -2.0577015033       -2.7352944071
 H          3.6982834875        0.4058048753       -2.4739379316
 H          1.9152595024        2.2626006159       -0.9736159276
 H          2.8451482193        1.9453945673        2.5001790711
 H          1.8694496645        0.2010446442        3.9764064230
 H          0.2915778690       -1.4511283168        3.0571619833
 H         -0.9286335686       -2.3306391127        1.3148128536
 C          0.2025394779       -2.5925557603       -0.4784515851
 C          1.1189151685       -3.6427720047        0.0699657835
 C         -0.1629571956       -4.0402077359       -0.5971177811
 H         -0.1199210308       -4.5029678441       -1.5715603480
 H         -0.9703665051       -4.4039379784        0.0217156763
 H          2.0473516201       -3.8305910021       -0.4454703226
 H          1.1825826979       -3.7395658426        1.1428723468
 H          0.5062762983       -2.0798853191       -1.3816603658
