  62
        -98.93876364
 C         -1.9431103603       -1.3086072009       -0.0532232904
 C         -2.5935160302       -0.6681575206        1.0244273995
 C         -3.8064281400        0.1112126597        0.7080534893
 C         -4.2075915199        0.1883960197       -0.5747986707
 C         -5.3786290797        0.9465908799       -1.1416151008
 C         -5.1194986793        2.4588886298       -1.2303813410
 C         -4.4715877291        3.0725646698        0.0079342889
 H         -3.5194464793        2.5735370596        0.1981643190
 H         -4.2481605788        4.1187035897       -0.2180358312
 C         -5.3255856392        3.0393745502        1.2733746989
 H         -6.2649699290        3.5636354704        1.0846325788
 H         -4.7848878191        3.5956484602        2.0435803288
 C         -5.6461900596        1.6497799504        1.8289964591
 H         -6.0269630296        1.7865218006        2.8453709590
 H         -6.4427920497        1.1741168305        1.2633055691
 C         -4.4462539499        0.7141240501        1.9358449092
 H         -3.6415460497        1.2240019399        2.4781809492
 H         -4.7239861701       -0.1370231498        2.5693442293
 H         -6.0672385791        2.9600657901       -1.4342461111
 H         -4.4534934692        2.6386278895       -2.0780793210
 H         -5.5400265297        0.5627666898       -2.1513774008
 H         -6.2736705498        0.7406897302       -0.5622336808
 O         -3.5282093600       -0.4213382407       -1.5881585106
 C         -2.3914873703       -1.1772520109       -1.3670172704
 O         -1.8879060904       -1.6663617812       -2.3951883204
 H          0.0968695601        0.3803827586        0.4070757495
 C          0.7470807000       -0.1768592317       -0.2561473905
 C          0.4859684896       -1.5239672116       -0.4803909203
 C          1.3364813194       -2.2317151420       -1.3182966002
 C          2.3963889096       -1.5943472224       -1.9416737702
 C          2.6394494000       -0.2498902924       -1.7336383704
 C          1.8085972902        0.4623391979       -0.8765942905
 N          2.0634218005        1.8227896379       -0.6359040507
 S          3.6486448207        2.2845799475       -0.3603397307
 O          3.5600043210        3.4574155576        0.4814273392
 O          4.3269182108        2.4661533272       -1.6196256707
 C          4.3884816603        0.9268805074        0.5308492595
 C          3.8280717301        0.5562116977        1.7372493196
 C          4.3697500398       -0.5165928623        2.4261930097
 C          5.4575550696       -1.1967992427        1.9000275599
 C          6.0130495398       -0.8080528830        0.6911822298
 C          5.4738588301        0.2630050670       -0.0033982703
 H          5.8715919902        0.5965346568       -0.9480230304
 H          6.8600031296       -1.3373985233        0.2855416699
 H          5.8735419194       -2.0344315427        2.4371618200
 H          3.9383427997       -0.8196578621        3.3667960298
 H          2.9845633202        1.1068698680        2.1224437395
 H          1.4342599506        2.2486886482        0.0281200793
 H          3.4489579102        0.2632881873       -2.2268433004
 H          3.0404194695       -2.1530885726       -2.6031535801
 H          1.1633041092       -3.2799591620       -1.4955469300
 C         -0.7006285706       -2.1362656312        0.2220648597
 H         -0.5328678806       -2.0548961811        1.3062688397
 C         -0.9383191410       -3.5898735112       -0.1257111701
 C         -0.1647672313       -4.6657360013        0.5743752001
 C         -1.6191759113       -4.4708274109        0.8771587800
 H         -2.3259000114       -5.2056821007        0.5217997801
 H         -1.8920527212       -4.0268808107        1.8235271300
 H          0.1273124585       -5.5398599415        0.0125163102
 H          0.5529011188       -4.3594380214        1.3200500001
 H         -1.1917620410       -3.7335665513       -1.1698413001
 O         -2.1756843603       -0.7325239105        2.2136296595
