  62
        -98.93841215
 C          2.1738634188        1.0278886526       -0.5009834700
 C          1.5134434300       -0.0990439078       -1.0532494706
 C          2.1416096912       -1.4097800073       -0.8201333508
 C          3.2747156110       -1.4916807665       -0.1044013605
 C          3.9784476221       -2.7646359760        0.2633991493
 C          3.4886257321       -3.3003691869        1.6158385490
 C          1.9662471222       -3.3680929583        1.7459349085
 H          1.7435103223       -3.8009982088        2.7241416282
 H          1.5529578612       -2.3559713387        1.7482695087
 C          1.2675792733       -4.1895576386        0.6535032380
 H          1.9881124540       -4.8461111378        0.1630256680
 H          0.5148679837       -4.8251016994        1.1249250575
 C          0.5426454528       -3.3461842289       -0.3971810420
 H         -0.1144065264       -4.0058866893       -0.9709450924
 H         -0.0876123980       -2.6097176497        0.1085730480
 C          1.4497404725       -2.6140048977       -1.3949500215
 H          2.1776547233       -3.3127567769       -1.8129491415
 H          0.8212681724       -2.2450164481       -2.2103463715
 H          3.9110660930       -4.2959830365        1.7652797488
 H          3.8689258513       -2.6478693968        2.4054212793
 H          3.8095419530       -3.5061348158       -0.5150829410
 H          5.0482101519       -2.5585291550        0.3310535797
 O          3.8905744698       -0.3974349861        0.4087943201
 C          3.3546255587        0.8644679235        0.2399104403
 O          4.0258069677        1.7635783339        0.7897234508
 O          0.4498059202       -0.0590020386       -1.7244428309
 C          1.7027192175        2.4762460922       -0.5538403597
 C          0.5402435969        2.7485839408        0.3772792900
 C          0.5828262157        3.8576409406        1.2167042204
 C         -0.4528023449        4.1185739593        2.0947082102
 C         -1.5348801341        3.2612509383        2.1744611295
 C         -1.5898533628        2.1504286785        1.3394809191
 C         -0.5714604523        1.9208309098        0.4251932394
 H         -0.6344168513        1.0686020499       -0.2268599709
 N         -2.6777944220        1.2686407575        1.4082763485
 S         -2.4992697204       -0.4039088423        1.3506506580
 O         -3.3159931303       -0.8994484034        2.4428022276
 O         -1.1112645501       -0.7903985110        1.3726825083
 C         -3.3014145296       -0.8390226225       -0.1791465424
 C         -4.6727381894       -1.0129117338       -0.1473264229
 C         -5.3414403887       -1.3185498340       -1.3205641832
 C         -4.6311417283       -1.4438162130       -2.5052850330
 C         -3.2568476784       -1.2677818417       -2.5201817125
 C         -2.5802415691       -0.9608707815       -1.3486048622
 H         -1.5112725092       -0.8151013705       -1.3444433118
 H         -2.6997661980       -1.3627072209       -3.4387113024
 H         -5.1501469977       -1.6804028632       -3.4209074933
 H         -6.4106110886       -1.4571280150       -1.3088182536
 H         -5.1826014498       -0.9194684546        0.7973281470
 H         -3.3577725125        1.5150989567        2.1129885584
 H         -2.3309955645        3.4454516873        2.8804699593
 H         -0.4074621159        4.9835779592        2.7391584205
 H          1.4453555251        4.5080260214        1.1878324309
 H          2.5608165269        3.0278404829       -0.1386480392
 C          1.4439272273        3.1269629824       -1.9110703496
 C          1.9430388983        2.5611897133       -3.2042773396
 C          0.4696871481        2.6434482819       -2.9389539300
 H         -0.1095609524        3.3839987915       -3.4711635500
 H         -0.0485777811        1.7195797313       -2.7470632705
 H          2.3892266379        3.2313491240       -3.9243883992
 H          2.3991207292        1.5821337637       -3.1747420098
 H          1.5100162563        4.2080764925       -1.8179851692
