  62
        -98.94276778
 C         -1.2855206089       -1.6277337298        0.2213100197
 C         -1.6398585898       -0.6202618699        1.1481102095
 C         -2.8503229502        0.1604258993        0.8472371890
 C         -3.5371230797       -0.1016832512       -0.2781241611
 C         -4.8277459299        0.5094296280       -0.7665597116
 C         -5.0247292008        2.0185662779       -0.5854016119
 C         -3.7559728013        2.8637079886       -0.7696695816
 H         -2.9516249708        2.2575856490       -1.1919791013
 H         -3.9620044016        3.6668228484       -1.4800739518
 C         -3.2650781421        3.5002385191        0.5319941885
 H         -2.6112945725        4.3398714194        0.2834739186
 H         -4.1224292125        3.8972488886        1.0809662982
 C         -2.4672018318        2.5669794097        1.4399823388
 H         -2.2217443924        3.1133024999        2.3544404689
 H         -1.5214584415        2.3191247002        0.9486361092
 C         -3.1762908211        1.2555928293        1.8215486888
 H         -2.7822683512        0.9265042696        2.7871274690
 H         -4.2491299612        1.4041987386        1.9192531484
 H         -5.7753206308        2.3257854673       -1.3159617821
 H         -5.4455977313        2.2180050977        0.3990466980
 H         -4.8723505094        0.2622674178       -1.8302703516
 H         -5.6538845697       -0.0182151025       -0.2797596418
 O         -3.1413032288       -1.0618550711       -1.1623954509
 C         -2.0010190984       -1.8232204104       -0.9579909705
 O         -1.7469734877       -2.6224862203       -1.8795824603
 H          0.4543388404       -0.0123337188       -0.5082129099
 C          1.1569625209       -0.7312302185       -0.8978463196
 C          1.0414242516       -2.0654508585       -0.5348792295
 C          1.9390090023       -2.9766611380       -1.0775233891
 C          2.9127259123       -2.5519969575       -1.9656750689
 C          3.0305518516       -1.2182104575       -2.3134328290
 C          2.1392336109       -0.2983876980       -1.7726014694
 N          2.2084428202        1.0652539820       -2.0920374595
 S          1.8171919892        2.2102923519       -0.9365811798
 O          0.3925467391        2.2491846411       -0.7256004702
 O          2.4119664886        3.4317765022       -1.4374490998
 C          2.6835581890        1.6868707126        0.5324739305
 C          2.0145920490        1.1436181124        1.6093580404
 C          2.7506417989        0.7097302829        2.7019512307
 C          4.1311692289        0.8249493238        2.7013040511
 C          4.7886744489        1.3809165040        1.6137153512
 C          4.0603146589        1.8131272635        0.5187586609
 H          4.5318207489        2.2627587736       -0.3400486990
 H          5.8625854888        1.4753057147        1.6160372115
 H          4.6962645788        0.4822585342        3.5537519113
 H          2.2293164489        0.2789747327        3.5420172806
 H          0.9394904191        1.0530649017        1.5968445501
 H          3.0073138802        1.3388510924       -2.6441815293
 H          3.7940007017       -0.8914462471       -3.0025070388
 H          3.5976244229       -3.2712317572       -2.3883977286
 H          1.8714600929       -4.0188611680       -0.8118478490
 C         -0.0261122285       -2.4368150890        0.4670345902
 H          0.3317604510       -2.1180358687        1.4587604303
 C         -0.3245176776       -3.9201344692        0.5128666903
 C          0.4835517927       -4.8265543486        1.3916242307
 C         -0.9314039376       -4.4959717194        1.7564248802
 H         -1.6864545172       -5.2608419298        1.6548266401
 H         -1.1040089983       -3.8208363594        2.5820129201
 H          0.7000431034       -5.8246666785        1.0417424609
 H          1.2729319322       -4.3818714680        1.9785412009
 H         -0.6756453571       -4.3037893595       -0.4380556197
 O         -0.9744220602       -0.3875795094        2.1939860097
