  62
        -98.93688121
 C         -2.4150254900       -1.0880453339       -0.1993777616
 C         -2.4773553326        0.1478976165        0.4909266068
 C         -3.8268648440        0.6002083387        0.8620724753
 C         -4.8946999136       -0.1720531888        0.5961520857
 C         -6.3272044763        0.1480850700        0.9264999764
 C         -7.0201231284        1.0420157679       -0.1111451135
 C         -6.5745775088        2.5049240700       -0.1113718763
 H         -7.2880348551        3.0565858484       -0.7266936965
 H         -6.6408787659        2.9039448545        0.9012042121
 C         -5.1623385948        2.7379488791       -0.6664728284
 H         -4.8450641070        1.8621204710       -1.2375115400
 H         -5.1776907419        3.5815841613       -1.3602357170
 C         -4.1064124916        3.0447316699        0.3957492403
 H         -3.1399589006        3.1558694377       -0.1032323006
 H         -4.3426426098        3.9926979369        0.8841652990
 C         -3.9619237373        1.9621140982        1.4734118490
 H         -4.8128491018        1.9921835982        2.1534495700
 H         -3.0497999453        2.1616505800        2.0412826592
 H         -6.8617341010        0.6128965386       -1.1032850980
 H         -8.0921235294        1.0112468125        0.0966566507
 H         -6.3807475243        0.6188047207        1.9084594639
 H         -6.8568818812       -0.8060484046        0.9679017876
 O         -4.7844118600       -1.3864346807       -0.0063626742
 C         -3.5546614102       -1.8635934202       -0.4288450835
 O         -3.6039905171       -2.9835627775       -0.9761564645
 O         -1.4753708483        0.8464289955        0.7902272120
 C         -1.0978917145       -1.6654246724       -0.6866653269
 C         -0.0367848608       -1.5350993732        0.3778927945
 C         -0.2236950383       -2.1952221623        1.5902064095
 C          0.7236141541       -2.1152740717        2.5917761753
 C          1.8883529384       -1.3930891347        2.3989718688
 C          2.0815511023       -0.7265228320        1.1954536499
 C          1.1217044408       -0.7983991867        0.1955191301
 H          1.2903711108       -0.2527631533       -0.7177069723
 N          3.2390022413        0.0377364471        0.9771417202
 S          3.8899200532        0.0844173067       -0.5780677334
 O          3.2279600437        1.1119803751       -1.3413763254
 O          3.8857834614       -1.2413325098       -1.1562659089
 C          5.5602736729        0.5926918407       -0.2121642654
 C          5.8164620626        1.9359579532       -0.0106176318
 C          7.1062065720        2.3316919036        0.3061438369
 C          8.1126736820        1.3835385065        0.4161035138
 C          7.8410897739        0.0395462101        0.2086139129
 C          6.5529638615       -0.3632815681       -0.1071750216
 H          6.2968646851       -1.3953326704       -0.2853095782
 H          8.6263310149       -0.6945081736        0.2912544912
 H          9.1156411726        1.6946354884        0.6621876191
 H          7.3216249908        3.3759824897        0.4650711725
 H          5.0043519152        2.6365488154       -0.1155000623
 H          3.9497443837       -0.1091060264        1.6804249102
 H          2.6330224495       -1.3346325831        3.1783770449
 H          0.5602766483       -2.6278797878        3.5280448665
 H         -1.1311702861       -2.7662733030        1.7369512261
 H         -1.2930095809       -2.7417054560       -0.8316127452
 C         -0.6499535353       -1.1216499486       -2.0354353199
 C         -1.6462760030       -0.7026806140       -3.0736138536
 C         -0.7881730289        0.3242173277       -2.4010281755
 H          0.0098842660        0.7859659494       -2.9648593267
 H         -1.2404959557        0.9813195953       -1.6750996024
 H         -1.4457529435       -0.9489336685       -4.1054466373
 H         -2.6927090776       -0.7491290300       -2.8083716378
 H          0.2389941646       -1.6296891802       -2.4001626284
