  62
        -98.94066694
 C          1.9959334102        1.2984459494        0.3763840404
 C          2.5072685504        0.6239580694       -0.7603481695
 C          3.7611080402       -0.1201824008       -0.5527956092
 C          4.3239984598       -0.1483756911        0.6679160809
 C          5.5728635195       -0.9010814514        1.0228897412
 C          5.2489656591       -2.3190557514        1.5134372910
 C          4.2905636393       -3.0845629011        0.6008773306
 H          3.3128380793       -2.5969029109        0.6186907003
 H          4.1591573889       -4.0807334011        1.0291800504
 C          4.7642908597       -3.2120568010       -0.8537172993
 H          4.6038319796       -4.2402414109       -1.1849247495
 H          5.8356229997       -3.0164046212       -0.9128904989
 C          4.0283090902       -2.3058967807       -1.8426039294
 H          2.9488048801       -2.4300462005       -1.7218768998
 H          4.2822573404       -2.6315628406       -2.8548834994
 C          4.3552270404       -0.8102441408       -1.7483308891
 H          3.9188650408       -0.3215828906       -2.6244871792
 H          5.4374985305       -0.6676739510       -1.7779707088
 H          4.7945246188       -2.2478792314        2.5044390508
 H          6.1842116490       -2.8737257116        1.6082343712
 H          6.0859039994       -0.3594712616        1.8195098015
 H          6.2227124298       -0.9466351114        0.1511489814
 O          3.7807023096        0.4746718789        1.7449776509
 C          2.6025964997        1.1948374891        1.6306174106
 O          2.1966754395        1.6826316291        2.7048795305
 O          1.9626011007        0.6362452797       -1.8930577397
 C          0.7147529703        2.1135106296        0.3130503001
 C         -0.3520897296        1.3376031899       -0.4192758203
 C         -0.9402768591        1.7596451102       -1.6033865905
 C         -1.9050564991        0.9827227404       -2.2213757909
 C         -2.3118765795       -0.2177794795       -1.6700440112
 C         -1.7404343999       -0.6418184898       -0.4765679910
 C         -0.7742902100        0.1372165499        0.1404950994
 H         -0.3218099903       -0.1983727903        1.0663736095
 N         -2.1656164204       -1.8497239198        0.1031420087
 S         -3.8123259904       -2.1448737795        0.1628585181
 O         -4.0025451810       -2.9952070996        1.3174009580
 O         -4.2546427701       -2.6892993192       -1.0966530221
 C         -4.5658389002       -0.5488834694        0.4276742981
 C         -4.2224299104        0.1517727204        1.5670109383
 C         -4.7685308303        1.4082917805        1.7713577583
 C         -5.6448457199        1.9401545008        0.8375193581
 C         -5.9854198596        1.2212588610       -0.2974602521
 C         -5.4401910998       -0.0352053991       -0.5081120421
 H         -5.6744771597       -0.6266178189       -1.3781688423
 H         -6.6690493393        1.6363163012       -1.0202956623
 H         -6.0644523197        2.9207176508        0.9977182081
 H         -4.5048285604        1.9683175003        2.6542628184
 H         -3.5420014207       -0.2909826998        2.2770031984
 H         -1.7222746507       -2.0635148600        0.9839998988
 H         -3.0489612094       -0.8414963593       -2.1493639615
 H         -2.3423892987        1.3141707106       -3.1506534110
 H         -0.6204457888        2.6814527602       -2.0598460003
 H          0.3932464300        2.2127148396        1.3630473100
 C          0.9003998608        3.5286871697       -0.2134468697
 C          2.1853301708        4.2680097594        0.0081994208
 C          1.7898070212        3.8505700496       -1.3748406894
 H          1.4695146416        4.6158711398       -2.0667792994
 H          2.3212883412        3.0366115796       -1.8411106593
 H          2.1371369310        5.3153092894        0.2660575409
 H          2.9910499606        3.7363972092        0.4939566710
 H         -0.0095789991        4.1134174198       -0.1210073099
