  62
        -98.94803490
 C          1.2681567939        1.0492720970        0.0094790885
 C          1.6209250481       -0.0495965677        0.8280276443
 C          2.6566559701       -0.9437309091        0.2965887200
 C          3.1531858653       -0.7146124523       -0.9327902311
 C          4.2405173751       -1.5204641080       -1.5814660116
 C          5.6266407925       -0.9371647508       -1.2726244045
 C          5.8599442947       -0.6512059203        0.2107864772
 H          6.8790279860       -0.2720572280        0.3123319265
 H          5.1856882141        0.1469632153        0.5291637044
 C          5.6728836260       -1.8676657490        1.1281334307
 H          5.7150651950       -2.7851933389        0.5401088883
 H          6.5000225742       -1.9002914102        1.8403389768
 C          4.3808246886       -1.8510052734        1.9468478058
 H          4.2893597552       -0.8937988782        2.4661749663
 H          4.4506016180       -2.6322340028        2.7084118525
 C          3.0879488838       -2.0967753677        1.1584613897
 H          3.1844147495       -3.0067748384        0.5619495793
 H          2.2800657034       -2.2493762660        1.8805659236
 H          5.7375917349       -0.0007028418       -1.8241010968
 H          6.3828084823       -1.6363119315       -1.6343081860
 H          4.0802678196       -1.5054971440       -2.6610284501
 H          4.1794596324       -2.5495131650       -1.2318245114
 O          2.7468651854        0.3165115436       -1.7164467279
 C          1.7952101928        1.2226120495       -1.2698827152
 O          1.5119363654        2.1154659807       -2.0911744236
 O          1.0898402444       -0.2727626671        1.9502431407
 C          0.2115105336        2.0204831128        0.4999042602
 C         -1.0228934894        1.9478301834       -0.3662854849
 C         -1.7954057477        3.0560865194       -0.6913260977
 C         -2.9344276927        2.9113303677       -1.4646562785
 C         -3.3437463629        1.6657606651       -1.9053294889
 C         -2.5809090372        0.5501023614       -1.5798262069
 C         -1.4304586856        0.7025825094       -0.8237600091
 H         -0.8311821794       -0.1678285707       -0.6064677285
 N         -2.9537481057       -0.7368798835       -1.9955011622
 S         -2.6796369179       -2.0374989954       -0.9799648106
 O         -1.2844101643       -2.4007380444       -0.9883452581
 O         -3.5959925400       -3.0536330979       -1.4536829480
 C         -3.1935804602       -1.4707600370        0.6319504931
 C         -4.5474889662       -1.2676744770        0.8233238045
 C         -4.9902702198       -0.7793717425        2.0408398374
 C         -4.0745385823       -0.4971762127        3.0436784207
 C         -2.7212299203       -0.7120960828        2.8386994437
 C         -2.2716165928       -1.2039528022        1.6226605715
 H         -1.2205301767       -1.3704185912        1.4446532891
 H         -2.0004221053       -0.4955440086        3.6111792284
 H         -4.4163360324       -0.1103829016        3.9907288408
 H         -6.0434785628       -0.6171082573        2.2036239596
 H         -5.2280987552       -1.5100004001        0.0233578363
 H         -3.8504678188       -0.7964665977       -2.4546710048
 H         -4.2354665505        1.5555502854       -2.5028398058
 H         -3.5186992523        3.7819956519       -1.7206025440
 H         -1.5009932069        4.0338426395       -0.3470580597
 H         -0.0682427016        1.6625181614        1.5031324053
 C          0.7806650264        3.4186556277        0.6234496609
 C          0.2781766109        4.3516812260        1.6834361936
 C          1.6428175408        3.7455162126        1.8049749987
 H          2.5066167496        4.3755656675        1.6548092748
 H          1.7941506480        2.9663968272        2.5380203920
 H          0.2065038514        5.4036597132        1.4516683805
 H         -0.4953495299        3.9894874011        2.3434889281
 H          1.0673318199        3.8354363834       -0.3353641697
