  62
        -98.93818002
 C          2.4704643940        0.7968603156        0.0226972455
 C          2.7865026105       -0.3770928014        0.7541671049
 C          3.8667078808       -1.2132308939        0.2177356475
 C          4.4748263674       -0.8421446853       -0.9235058521
 C          5.6224756769       -1.5697217166       -1.5604752382
 C          6.9697810919       -1.0315605189       -1.0590487002
 C          7.0632488512       -0.9218987982        0.4628337260
 H          8.0660370129       -0.5612847488        0.7020603683
 H          6.3578753113       -0.1630811679        0.8093996973
 C          6.8002564829       -2.2359354447        1.2115695799
 H          6.9027806954       -3.0791671470        0.5276226337
 H          7.5588886099       -2.3544205284        1.9881304699
 C          5.4383228630       -2.3089992409        1.9045458050
 H          5.2918811058       -1.4176937870        2.5199847562
 H          5.4443057515       -3.1720407416        2.5757043191
 C          4.2252572937       -2.4591208528        0.9778382052
 H          4.3866833957       -3.2944165628        0.2933143792
 H          3.3565673193       -2.6887339573        1.6018214884
 H          7.7617414016       -1.6859539053       -1.4278144556
 H          7.1250998129       -0.0371806124       -1.4839293273
 H          5.5387538296       -2.6320603900       -1.3394809409
 H          5.5633691119       -1.4262709306       -2.6406340122
 O          4.1350550783        0.2770794506       -1.6083001974
 C          3.1266734887        1.1261967660       -1.1641616467
 O          2.9362855224        2.1038203025       -1.9091142597
 H         -0.8304830247        0.8713301100        1.9560935511
 C         -0.9970355993        0.8411630335        0.8877542811
 C          0.0263873802        1.2129715197        0.0295425063
 C         -0.1957120981        1.1487633453       -1.3429940494
 C         -1.4171006050        0.7255706803       -1.8335164539
 C         -2.4342280227        0.3477276737       -0.9734282854
 C         -2.2222910110        0.4038731929        0.3971666219
 N         -3.2311786414       -0.0071842961        1.2777928633
 S         -4.8309263598        0.3906089608        0.9876744993
 O         -4.9462221550        1.6545292969        0.2986631107
 O         -5.4753052599        0.3014881065        2.2792825086
 C         -5.4188468008       -0.9315733823       -0.0495788705
 C         -6.0661068670       -0.6421009776       -1.2346815567
 C         -6.5230158592       -1.6878609361       -2.0217195707
 C         -6.3264369166       -2.9973859858       -1.6112872772
 C         -5.6774164422       -3.2712441292       -0.4164737123
 C         -5.2195632879       -2.2304569719        0.3753503998
 H         -4.7123945577       -2.4026574769        1.3100678795
 H         -5.5256658234       -4.2909081070       -0.1007191629
 H         -6.6808093744       -3.8095958733       -2.2261596840
 H         -7.0284543174       -1.4772294607       -2.9505119997
 H         -6.1917469876        0.3910568774       -1.5175876687
 H         -2.9925145938        0.0659909678        2.2553317064
 H         -3.3851219921        0.0146674739       -1.3553947701
 H         -1.5788269955        0.6833666904       -2.9000596673
 H          0.5991289264        1.4344556453       -2.0156664898
 C          1.3545695631        1.6593336684        0.5858113340
 H          1.3488838192        1.4347640424        1.6645169951
 C          1.6021428830        3.1537113563        0.4398097236
 C          0.7816533949        4.0571347718       -0.4260317479
 C          0.6481585941        4.1298046471        1.0636031489
 H          1.0469207464        4.9882133269        1.5825836556
 H         -0.2552544424        3.7297885565        1.5004052732
 H         -0.0340932501        3.6311052192       -0.9882539178
 H          1.2961638124        4.8523256986       -0.9434301955
 H          2.6573204287        3.3965118821        0.5123746596
 O          2.1906161772       -0.7048557854        1.8160217313
