  62
        -98.93285099
 C         -1.8490791876       -1.3024580165        0.7515632377
 C         -2.8780097919       -1.2251623538       -0.2165701130
 C         -3.8864715155       -0.1631812629       -0.0166586972
 C         -3.7635503749        0.6917361145        1.0144753057
 C         -4.6433242492        1.8349306527        1.4763328670
 C         -5.7303885541        2.4029104158        0.5675155072
 C         -5.2123929440        3.1287730734       -0.6737754161
 H         -4.7262209501        4.0547889962       -0.3567424949
 H         -6.0702767515        3.3995593230       -1.2932378367
 C         -4.2112919765        2.3501617253       -1.5237287037
 H         -3.3060285169        2.1599942417       -0.9436169086
 H         -3.9254048658        2.9839692732       -2.3674920429
 C         -4.7242257371        1.0276947493       -2.0900601866
 H         -3.9762919796        0.6607787410       -2.7979832830
 H         -5.6507500497        1.1980000915       -2.6419514596
 C         -4.9670278675       -0.0861064756       -1.0568351511
 H         -4.9530791959       -1.0436019339       -1.5857566962
 H         -5.9434613060        0.0135716885       -0.5887855974
 H         -6.2871521488        3.1293861396        1.1658976069
 H         -6.4332390281        1.6236155834        0.2878874065
 H         -3.9586784451        2.6401740553        1.7608556742
 H         -5.1143293682        1.4902864663        2.4037418175
 O         -2.7315194635        0.5967862479        1.9048210566
 C         -1.7648577460       -0.3836587984        1.7990851434
 O         -0.8907096696       -0.3393244103        2.6886673553
 O         -2.9788046689       -1.9974139502       -1.2028990021
 C         -0.7415082278       -2.3431750788        0.7163819862
 C          0.4255593332       -1.8108050950       -0.0739937576
 C          0.2691694639       -1.3759984889       -1.3869735903
 C          1.3474130957       -0.8703698869       -2.0897583077
 C          2.5951538523       -0.7726951778       -1.4975325411
 C          2.7543908470       -1.1798468705       -0.1797369603
 C          1.6734688092       -1.7018349273        0.5200953945
 H          1.8007925866       -2.0095990214        1.5490297548
 N          4.0074335218       -1.0563872130        0.4403049386
 S          4.9102950816        0.3211113114        0.1530987751
 O          5.6218677351        0.1808046802       -1.0930482458
 O          5.7330707075        0.4827552384        1.3308625056
 C          3.7351261857        1.6588617428        0.0212908722
 C          2.8230626564        1.8423668174        1.0415213513
 C          1.9011909954        2.8713759602        0.9392803495
 C          1.9098465389        3.6989641905       -0.1731702663
 C          2.8370345923        3.5068426189       -1.1856406653
 C          3.7577994692        2.4758813296       -1.0909645090
 H          4.4906910918        2.2858498357       -1.8583395483
 H          2.8420073430        4.1532247664       -2.0484363619
 H          1.1883518355        4.4971702518       -0.2491659781
 H          1.1762568803        3.0139749131        1.7251490801
 H          2.8321143650        1.1878774250        1.8985083751
 H          4.0122264753       -1.3041163707        1.4186859867
 H          3.4457416839       -0.3889093995       -2.0371024088
 H          1.2167184145       -0.5457144126       -3.1107911187
 H         -0.7058093732       -1.4418739381       -1.8457825927
 H         -0.4119129159       -2.4431804232        1.7628562388
 C         -1.2126479338       -3.7172769860        0.2616851853
 C         -0.7580761895       -4.3802120224       -1.0003802526
 C         -0.2654628280       -4.8795531452        0.3223010298
 H         -0.6279185162       -5.8270191258        0.6914057216
 H          0.7612752914       -4.6678858036        0.5825209502
 H         -1.4830544290       -4.9681685891       -1.5422078383
 H         -0.0620957248       -3.8560645596       -1.6358651929
 H         -2.2368716746       -3.9131018693        0.5606078566
