  62
        -98.93975884
 C         -2.2173436125       -0.7923311368        0.1470382013
 C         -2.4284238056        0.3695306258        0.9270647671
 C         -3.1197741077        1.4787803982        0.2574512173
 C         -3.4632407161        1.3516253853       -1.0375488938
 C         -4.2145448804        2.3813212964       -1.8296735401
 C         -5.7293769338        2.1453197198       -1.7506009550
 C         -6.2500138645        1.9462965035       -0.3271223056
 H         -7.3329328944        1.8202927923       -0.3916127822
 H         -5.8420355020        1.0160170056        0.0747702056
 C         -5.9255544144        3.0982662891        0.6342137395
 H         -5.6609628843        3.9911734482        0.0667274830
 H         -6.8215677884        3.3350604707        1.2117739226
 C         -4.8158169275        2.7903681338        1.6411766464
 H         -4.8185783223        3.5765037768        2.4009481744
 H         -5.0324055179        1.8460892295        2.1471146473
 C         -3.3953904976        2.7149222506        1.0669589532
 H         -3.1867392622        3.6133672523        0.4825927705
 H         -2.6982313898        2.6826964174        1.9094658544
 H         -6.2355258967        2.9964829276       -2.2096675830
 H         -5.9711793448        1.2522998275       -2.3315107401
 H         -3.9707638032        3.3725239323       -1.4523364580
 H         -3.8986075723        2.3105111107       -2.8717788170
 O         -3.2001149236        0.2387078158       -1.7683308880
 C         -2.5776340864       -0.8630036507       -1.1991456166
 O         -2.4060976224       -1.8149969511       -1.9823935450
 O         -2.0494232058        0.4763990814        2.1256917223
 C         -1.5226009636       -1.9831985571        0.7838912899
 C         -0.1870950298       -2.2042418402        0.1157526135
 C          0.1945186711       -3.4028881798       -0.4697779395
 C          1.4360484410       -3.5219806646       -1.0717924485
 C          2.3193613257       -2.4594001813       -1.1005175329
 C          1.9525182450       -1.2579226769       -0.5061986818
 C          0.7109126122       -1.1428875393        0.0997632651
 H          0.4226394842       -0.2082545050        0.5655695491
 N          2.8349681407       -0.1588916796       -0.5387391137
 S          4.4429907829       -0.4589310625       -0.1100861351
 O          5.1083683526       -1.0720419787       -1.2317409970
 O          4.4969487049       -1.1946192081        1.1340737641
 C          5.0514444444        1.1995477338        0.1185087084
 C          5.1066956389        1.7323449524        1.3923085062
 C          5.5602359899        3.0319122312        1.5557734853
 C          5.9449224056        3.7729908595        0.4485558875
 C          5.8839484220        3.2239454871       -0.8237928623
 C          5.4330723898        1.9247742679       -0.9942150300
 H          5.3773698792        1.4535721346       -1.9615441685
 H          6.1865676697        3.8026547783       -1.6815238321
 H          6.2975019842        4.7839335486        0.5788524879
 H          5.6116390416        3.4601072598        2.5439250822
 H          4.8057153921        1.1171400092        2.2252640270
 H          2.4728584214        0.6217412504       -0.0070434635
 H          3.2885346635       -2.5452765507       -1.5643391634
 H          1.7194033863       -4.4582134972       -1.5289508335
 H         -0.4797409153       -4.2431354127       -0.4626625508
 H         -1.3311777178       -1.6848455840        1.8254956864
 C         -2.4211053870       -3.2006390465        0.7850940685
 C         -2.2121886664       -4.2832556933        1.8001184857
 C         -3.4010820328       -3.3773209744        1.9046808653
 H         -4.3776207684       -3.7773644600        1.6766819041
 H         -3.4073454996       -2.6283891011        2.6833091020
 H         -2.3737244763       -5.3081308530        1.5022668766
 H         -1.4099607059       -4.1526250400        2.5106937770
 H         -2.7433024665       -3.4851976570       -0.2099106956
