  62
        -98.94464695
 C          2.0010027599        0.7778692458        0.5425100832
 C          1.9664153266        0.0722464977       -0.6841682530
 C          2.0550869776       -1.3903375411       -0.5841738077
 C          2.1018470718       -1.9657972060        0.6307668930
 C          2.2216614203       -3.4417308361        0.8770770709
 C          3.6910388926       -3.8740622627        0.9832509415
 C          4.5710407390       -3.3540617298       -0.1533229292
 H          4.6312427630       -2.2655049714       -0.0859342967
 H          5.5778168353       -3.7439095575        0.0108769246
 C          4.0919568242       -3.7482670279       -1.5572924458
 H          4.9519198706       -4.0873809237       -2.1385034584
 H          3.3952016799       -4.5843393650       -1.4894126551
 C          3.4410976891       -2.6113026735       -2.3472796578
 H          4.0966931674       -1.7370690845       -2.3387555859
 H          3.3383158312       -2.9342429430       -3.3865746242
 C          2.0515960221       -2.1737137451       -1.8662293938
 H          1.6292266347       -1.5029591712       -2.6203320999
 H          1.3956581478       -3.0427799935       -1.7811763692
 H          3.7283508731       -4.9646511589        1.0060938769
 H          4.0931738411       -3.4994486149        1.9273135541
 H          1.7121418269       -3.6737443840        1.8141287509
 H          1.7290563754       -3.9771208599        0.0675240727
 O          2.0939000174       -1.2566171556        1.7897193729
 C          2.0405970365        0.1273715318        1.7739088350
 O          2.0391834987        0.6564105695        2.9059640392
 H         -0.4966682727        1.1659108811        0.9360284743
 C         -0.5593606759        1.9562055040        0.2005912123
 C          0.5812359285        2.6763756436       -0.1317641683
 C          0.4716711012        3.7000111341       -1.0635407375
 C         -0.7443567857        3.9638829385       -1.6707074190
 C         -1.8652870203        3.2115814991       -1.3735507495
 C         -1.7699292523        2.1989758590       -0.4246322302
 N         -2.8922963620        1.4276374730       -0.0741659148
 S         -2.6487373862       -0.1847801963        0.3654662681
 O         -2.2886782920       -0.2352180824        1.7616862207
 O         -1.7455871743       -0.8340979208       -0.5575484435
 C         -4.3051325595       -0.8133524314        0.1557169930
 C         -4.6382122595       -1.4723260607       -1.0125367832
 C         -5.9379561938       -1.9242508866       -1.1802289355
 C         -6.8780599102       -1.7072164970       -0.1841349624
 C         -6.5287089123       -1.0448187972        0.9834597058
 C         -5.2307144040       -0.5917319050        1.1580343549
 H         -4.9087949959       -0.0806907555        2.0504065764
 H         -7.2611745900       -0.8802586305        1.7570868331
 H         -7.8886947628       -2.0592857680       -0.3173614266
 H         -6.2110586288       -2.4425629801       -2.0852053826
 H         -3.8708444965       -1.6237677045       -1.7548826091
 H         -3.6519250791        1.5197032462       -0.7351910608
 H         -2.8055908562        3.4021993231       -1.8679916956
 H         -0.8149152005        4.7562911938       -2.4003526436
 H          1.3407076108        4.2807768248       -1.3260315074
 C          1.8766367771        2.2911947321        0.5424207416
 H          1.8178803323        2.5930212416        1.5990409820
 C          3.0993613428        2.9280918383       -0.0841609951
 C          3.5507379485        4.2888448425        0.3517388128
 C          4.3399259141        3.0766261705        0.7425788399
 H          5.2966626386        2.9071729598        0.2719454991
 H          4.2922889335        2.7405549490        1.7684854605
 H          3.9708009416        4.9541284432       -0.3873887955
 H          2.9740859364        4.7846926065        1.1178845651
 H          3.2207442467        2.6536989126       -1.1257399937
 O          1.8726976056        0.6363785044       -1.8062857623
