  62
        -98.93862928
 C         -1.8290972207       -0.8792566691        0.8276200995
 C         -2.0621910300        0.5192055811        0.8957491694
 C         -3.4495913397        0.9584047018        0.7194732391
 C         -4.4162155202        0.0430095523        0.5278261188
 C         -5.8832050400        0.3272736731        0.3509366085
 C         -6.2780428394        0.6919495732       -1.0867843217
 C         -5.8364410886        2.0806002130       -1.5509690716
 H         -6.3642114682        2.2888780233       -2.4838424617
 H         -6.1582074483        2.8252246232       -0.8222012017
 C         -4.3272326284        2.2164790022       -1.7973644312
 H         -4.1579906179        2.7265642621       -2.7483693711
 H         -3.8806898589        1.2231256920       -1.8842734210
 C         -3.5771881183        3.0022014718       -0.7216867910
 H         -2.5141807882        3.0006036013       -0.9757680007
 H         -3.9222831277        4.0384812720       -0.7172130311
 C         -3.7255510189        2.4313082319        0.6945714590
 H         -2.9895699589        2.9173635216        1.3394821091
 H         -4.7228975189        2.6384098725        1.0819919887
 H         -5.8721358196       -0.0642935570       -1.7626989415
 H         -7.3676381994        0.6412498538       -1.1479370419
 H         -6.1856451197        1.1276046832        1.0269426984
 H         -6.4132156205       -0.5851236766        0.6326562983
 O         -4.1589703909       -1.2897555078        0.4899753089
 C         -2.8646281712       -1.7888295785        0.6096513293
 O         -2.8006331418       -3.0273104186        0.5101109893
 O         -1.1479807996        1.3606674706        1.1053995697
 C         -0.3886465510       -1.3250811898        0.9941482499
 C          0.3185858393       -1.4074757002       -0.3340454099
 C         -0.2332553208       -2.0888693300       -1.4142296400
 C          0.4506600895       -2.1636901204       -2.6139974099
 C          1.6960333798       -1.5766818610       -2.7552688496
 C          2.2528188899       -0.8871411413       -1.6842607994
 C          1.5539216696       -0.7968589209       -0.4883745096
 H          1.9809504897       -0.2478978211        0.3358074705
 N          3.4990934103       -0.2634104720       -1.8032170691
 S          4.5196776400       -0.1038413625       -0.4888114789
 O          5.8231156403        0.1209985568       -1.0750662385
 O          4.4112757892       -1.2294827624        0.4089269011
 C          3.9725656206        1.3903173378        0.3080251010
 C          3.6808933902        1.3848627780        1.6572599709
 C          3.2605623307        2.5613008083        2.2571982108
 C          3.1413276315        3.7166861183        1.5009559107
 C          3.4433931919        3.7069572181        0.1475870908
 C          3.8643363614        2.5342076379       -0.4576044591
 H          4.1098596516        2.4881587077       -1.5055121690
 H          3.3481786725        4.6082929581       -0.4364031693
 H          2.8087498219        4.6292813885        1.9699449806
 H          3.0226497305        2.5699591884        3.3088480907
 H          3.7794452196        0.4626611180        2.2089786209
 H          3.9934042004       -0.4364506922       -2.6654774690
 H          2.2323116100       -1.6474762113       -3.6892885594
 H          0.0142543494       -2.6956824401       -3.4461701300
 H         -1.1955663811       -2.5650245795       -1.2994675403
 H          0.0882798293       -0.5108970801        1.5637321400
 C         -0.2288480419       -2.5957750799        1.8165847200
 C          0.1863786475       -3.9125216601        1.2405849301
 C          1.1423319377       -3.1384890306        2.0953273903
 H          1.3616199273       -3.5038417407        3.0874282704
 H          1.9816760981       -2.6637344111        1.6064673105
 H         -0.2743472930       -4.8012395899        1.6441894400
 H          0.3810437978       -3.9699894803        0.1813818802
 H         -0.9422183321       -2.6376931895        2.6338192698
