  62
        -98.93790215
 C         -2.4197509849       -0.4571089789        0.4577893154
 C         -3.2214421480       -0.3856753053       -0.7084579568
 C         -4.2886573219        0.6298495125       -0.6875841968
 C         -4.4159481589        1.4417090402        0.3764278421
 C         -5.4794568177        2.4880318951        0.5388627356
 C         -6.7150414138        1.9202385127        1.2510435191
 C         -7.2157807988        0.6018797664        0.6611292758
 H         -6.4644252070       -0.1726824402        0.8315223728
 H         -8.1075876333        0.3125657465        1.2214032761
 C         -7.5494536324        0.6627110702       -0.8359961906
 H         -7.6751215965        1.7008249961       -1.1455778124
 H         -8.5030315769        0.1571820327       -1.0027475361
 C         -6.5211139113       -0.0154282418       -1.7432968822
 H         -6.9571409673       -0.1062340803       -2.7417177283
 H         -6.3234078131       -1.0272282402       -1.3802474414
 C         -5.1799667134        0.7133622603       -1.8951087856
 H         -4.6293987667        0.2290687018       -2.7068957338
 H         -5.3564323757        1.7543876912       -2.1728956943
 H         -6.4628909450        1.7518191689        2.3006272071
 H         -7.5111729231        2.6657457263        1.2084351428
 H         -5.0693387306        3.3036152004        1.1368032355
 H         -5.7564499136        2.8723308716       -0.4408713685
 O         -3.6029250630        1.3688093361        1.4617331968
 C         -2.6016763416        0.4173872623        1.5328026470
 O         -1.9458867297        0.4433788370        2.5945369330
 H          1.0540754568       -1.1384335467        1.9237953528
 C          1.1171202854       -0.8085905249        0.8951823303
 C         -0.0036300363       -0.8960788794        0.0832397242
 C          0.0874393236       -0.4486778047       -1.2314575583
 C          1.2765617477        0.0663390110       -1.7136829154
 C          2.3922170773        0.1548801628       -0.8988547070
 C          2.3107217323       -0.2828457680        0.4157529353
 N          3.4311838393       -0.1737404159        1.2545995405
 S          4.9156759012       -0.7278013397        0.7022752323
 O          4.7547463307       -1.8061311997       -0.2450548915
 O          5.6718272245       -1.0288744036        1.8978783734
 C          5.6356828805        0.6899076887       -0.0980531743
 C          6.0578271662        0.5992060481       -1.4099041226
 C          6.6261570189        1.7124824509       -2.0093750136
 C          6.7621985011        2.8897191728       -1.2898146236
 C          6.3358172344        2.9633816614        0.0280381937
 C          5.7680841438        1.8538476798        0.6335160943
 H          5.4282501857        1.8691596007        1.6556977320
 H          6.4434366732        3.8806241678        0.5843347367
 H          7.2034498881        3.7551310200       -1.7585696423
 H          6.9592315719        1.6570674694       -3.0333322282
 H          5.9276002393       -0.3354552624       -1.9319671524
 H          3.2632765360       -0.4689147272        2.2053269802
 H          3.3191473368        0.5591551279       -1.2714010295
 H          1.3356241849        0.4070676569       -2.7362941742
 H         -0.7826497657       -0.5134139767       -1.8670879370
 C         -1.2897535200       -1.4596897793        0.6303718065
 H         -1.1658933978       -1.5630510115        1.7202965859
 C         -1.6239941243       -2.8419513826        0.0856753356
 C         -0.9332553945       -3.4729866626       -1.0819455411
 C         -0.6658924017       -3.9763866896        0.3024971489
 H         -1.0568106608       -4.9395780992        0.5937203532
 H          0.2930696725       -3.7389301432        0.7400184121
 H         -0.1519483125       -2.9205498721       -1.5792976853
 H         -1.5322109312       -4.0741320265       -1.7488014167
 H         -2.6781048606       -3.0744448573        0.1967230614
 O         -3.0721299350       -1.1162946707       -1.7202574488
