  62
        -98.93543534
 C          1.0439837087        1.6163877718        0.4435323106
 C          1.6130217403        0.5521803999        1.1863171457
 C          2.8145098684       -0.0899353568        0.6217246350
 C          3.2868777645        0.3436951468       -0.5594061766
 C          4.4963564846       -0.1391931348       -1.3130978256
 C          4.1245853256       -1.2339187193       -2.3266481617
 C          4.1461742921       -2.6543775612       -1.7661610556
 H          3.7606490342       -3.3175076308       -2.5437639534
 H          5.1796918241       -2.9468330918       -1.5689721182
 C          3.3230483738       -2.8571067222       -0.4921419195
 H          2.3692655910       -2.3353695084       -0.5866805069
 H          3.1068712579       -3.9230479686       -0.4039531199
 C          4.0462561590       -2.3892133040        0.7795589151
 H          5.0903105636       -2.1825854640        0.5463933421
 H          4.0505866843       -3.1970378453        1.5145305044
 C          3.4206689623       -1.1731415455        1.4725945178
 H          2.6019884623       -1.5032787055        2.1198796199
 H          4.1677121938       -0.7163681102        2.1314765174
 H          3.1302245270       -1.0056614831       -2.7187197549
 H          4.8242843163       -1.1877109672       -3.1636865832
 H          4.8778447320        0.7254688269       -1.8606920757
 H          5.2660556684       -0.4823881497       -0.6281991905
 O          2.6596488606        1.3134916268       -1.2805020942
 C          1.5191496518        1.9555802223       -0.8243372911
 O          1.0541902143        2.7821569310       -1.6297298424
 O          1.1393999605        0.1536383276        2.2839302928
 C         -0.1862098031        2.2949610688        1.0207635559
 C         -1.3152574047        2.2100723004        0.0267437705
 C         -1.8401642616        3.3022297367       -0.6500725786
 C         -2.8534118004        3.1235994731       -1.5757923095
 C         -3.3749940091        1.8672304970       -1.8267239424
 C         -2.8591537921        0.7679747897       -1.1498783546
 C         -1.8322447300        0.9484874946       -0.2391960600
 H         -1.4198867742        0.0939307092        0.2770905135
 N         -3.3503931264       -0.5303661070       -1.3716874101
 S         -3.6864874615       -1.4824385640       -0.0312364287
 O         -4.6094702600       -2.4844308003       -0.5216828966
 O         -4.1554964752       -0.6786565775        1.0742269320
 C         -2.1484710175       -2.2729206548        0.3876144625
 C         -1.4920586423       -3.0009061556       -0.5849314656
 C         -0.3085337161       -3.6400097278       -0.2533398699
 C          0.1935528886       -3.5429461021        1.0360587396
 C         -0.4776940272       -2.8090371320        2.0007224691
 C         -1.6624120897       -2.1688025375        1.6757183660
 H         -2.2098536425       -1.5781776786        2.3932794252
 H         -0.0802474814       -2.7191372505        2.9987719941
 H          1.1167263937       -4.0382668780        1.2913348013
 H          0.2212109086       -4.2094777492       -1.0002370227
 H         -1.9149455427       -3.0542063365       -1.5745386594
 H         -4.0963128085       -0.5855660099       -2.0506481387
 H         -4.1707366414        1.7343598295       -2.5444342680
 H         -3.2475111339        3.9771613992       -2.1066188920
 H         -1.4377940215        4.2858144140       -0.4712454391
 H         -0.4590171333        1.6644242402        1.8837750842
 C          0.0402838355        3.6933696626        1.5717677431
 C          1.3532957412        4.0670531588        2.1913248000
 C          0.9167840810        4.7140228490        0.9128393758
 H          0.6031856924        5.7474950580        0.9463077765
 H          1.4129317565        4.4394925910       -0.0037141930
 H          1.3491597175        4.6546070242        3.0970601762
 H          2.1482861136        3.3365657657        2.1457376193
 H         -0.8494259701        4.0716383044        2.0672556966
