  62
        -98.93630296
 C         -2.4129465252       -0.1533478851       -0.4926082920
 C         -3.6487296591       -0.5953419097       -1.0308850951
 C         -4.7904392440       -0.6184714374       -0.1076467607
 C         -4.5985510136       -0.2797034502        1.1800011103
 C         -5.6797168481       -0.2097693682        2.2183945578
 C         -6.2981452746        1.1938634267        2.2837099790
 C         -6.6999698705        1.7566193641        0.9203196915
 H         -7.1507628592        2.7362786821        1.0928254949
 H         -5.8001894646        1.9184171000        0.3222677034
 C         -7.6790663766        0.8747347151        0.1328297224
 H         -8.1594797736        0.1628986500        0.8050446345
 H         -8.4648558738        1.5086965104       -0.2832587583
 C         -7.0497371289        0.1186294138       -1.0387659108
 H         -6.4895967400        0.8161926929       -1.6668093030
 H         -7.8565620339       -0.2947391389       -1.6497879560
 C         -6.1216473928       -1.0427628004       -0.6611441483
 H         -6.6327151192       -1.7108038912        0.0352447839
 H         -5.9007217552       -1.6026699620       -1.5747357937
 H         -7.1729452138        1.1550952508        2.9353079245
 H         -5.5693907244        1.8724409046        2.7330645367
 H         -6.4469669378       -0.9458817836        1.9859633020
 H         -5.2405317802       -0.4497406361        3.1881651364
 O         -3.3889424919        0.0824622843        1.6747982748
 C         -2.2653052241        0.1599379884        0.8596818322
 O         -1.2337879610        0.5097909074        1.4612120715
 O         -3.7881699208       -0.9588306369       -2.2295828597
 C         -1.2182737192       -0.1149274894       -1.4290301735
 C         -0.0434869904       -0.8203072908       -0.7994865752
 C         -0.1568758300       -2.1812629088       -0.5268734045
 C          0.8842858149       -2.8750179197        0.0579020847
 C          2.0641311328       -2.2284897799        0.3818992876
 C          2.1899752075       -0.8734913773        0.1109854025
 C          1.1433495664       -0.1791552863       -0.4852979889
 H          1.2481418525        0.8784138120       -0.6714078551
 N          3.3773519471       -0.2047094333        0.4559614996
 S          4.8373458839       -0.9953416254        0.1537229296
 O          4.8180720183       -1.5839252474       -1.1671525473
 O          5.1042295043       -1.9034875530        1.2411669659
 C          5.9843087169        0.3673226244        0.2100209371
 C          6.4349820563        0.8081709786        1.4398708059
 C          7.3088122202        1.8827259849        1.4862404744
 C          7.7143739473        2.4953332228        0.3097054772
 C          7.2542116559        2.0408896365       -0.9170305037
 C          6.3792172220        0.9673199010       -0.9706864625
 H          6.0035439578        0.5741658342       -1.9017828377
 H          7.5737068816        2.5172161229       -1.8299470148
 H          8.3960393705        3.3302690480        0.3489018281
 H          7.6709048790        2.2375770184        2.4376545382
 H          6.1001375785        0.2958643512        2.3266703703
 H          3.3929317688        0.7489712076        0.1219721605
 H          2.8858603998       -2.7563928140        0.8387392057
 H          0.7793320085       -3.9296484224        0.2659073100
 H         -1.0803925442       -2.6879274522       -0.7741396515
 H         -1.5398113772       -0.7137441650       -2.2979300161
 C         -0.8833556778        1.2688505263       -1.9647415533
 C         -1.9526509892        2.3052393727       -2.1349902106
 C         -0.8843641134        2.4944147689       -1.1023688349
 H         -0.1301208625        3.2468951500       -1.2824790892
 H         -1.1422348187        2.3747938212       -0.0620493095
 H         -1.9331976638        2.9243802891       -3.0192319689
 H         -2.9483536794        2.0533080124       -1.7999847376
 H         -0.1301584910        1.2248106041       -2.7460724466
