  62
        -98.94480039
 C          1.8363227466        0.0695042416        0.1250558700
 C          2.8419923939        0.8529675709        0.7400957967
 C          4.1781688223        0.2499288293        0.7930054639
 C          4.3720576793       -0.9862637311        0.2982879921
 C          5.6711194443       -1.7456735784        0.3004380859
 C          6.5989228341       -1.3980182817       -0.8718550069
 C          7.2710613629       -0.0271578549       -0.7852614765
 H          7.7604058514        0.0754251346        0.1838248762
 H          8.0518293787       -0.0048396188       -1.5481989103
 C          6.3232377595        1.1584702228       -1.0144216098
 H          6.7881788135        1.8684973716       -1.7021261919
 H          5.4063429103        0.8051339600       -1.4919830825
 C          5.9551984292        1.9301674623        0.2528366651
 H          6.8491764735        2.4008095944        0.6678945340
 H          5.2534969868        2.7221431825       -0.0207758882
 C          5.3014183724        1.0744266552        1.3457319090
 H          4.8819401573        1.7440939811        2.1004593507
 H          6.0463542254        0.4356094628        1.8194931914
 H          7.3805432890       -2.1605347132       -0.9058892952
 H          6.0282028744       -1.4663618023       -1.8009457559
 H          6.1938694729       -1.5764219762        1.2422253416
 H          5.4114497428       -2.8042774030        0.2317191923
 O          3.3716985663       -1.7182169130       -0.2611863784
 C          2.0873172866       -1.2056933485       -0.3811839668
 O          1.2799017376       -1.9728647162       -0.9391723822
 O          2.6306285683        1.9955568965        1.2273816193
 C          0.4348389383        0.6407411366        0.0022109639
 C         -0.5590349129       -0.2758431101        0.6689105988
 C         -0.3094725807       -0.6894982327        1.9761644808
 C         -1.1711300701       -1.5524910287        2.6223838021
 C         -2.3102172551       -2.0128226824        1.9843694086
 C         -2.5753103854       -1.5977533091        0.6860259795
 C         -1.7083212241       -0.7252626712        0.0390077558
 H         -1.9331510594       -0.4340633145       -0.9730908155
 N         -3.7193616678       -2.0519546940        0.0146769223
 S         -4.5748782213       -1.0216181664       -0.9786411793
 O         -5.9042462558       -1.5923256022       -1.0289879825
 O         -3.9121076130       -0.8664484567       -2.2486208752
 C         -4.6163536839        0.5391375347       -0.1137725882
 C         -5.0667840047        0.5587712225        1.1918412152
 C         -5.0974290320        1.7648080194        1.8722278120
 C         -4.6834283865        2.9267315029        1.2385919268
 C         -4.2420087401        2.8919891901       -0.0745754811
 C         -4.2061449267        1.6870567856       -0.7584976301
 H         -3.8647107671        1.6141914085       -1.7780153196
 H         -3.9239577714        3.7963482414       -0.5685857211
 H         -4.7060772940        3.8646633389        1.7706967546
 H         -5.4427978498        1.7955520806        2.8929906742
 H         -5.3919597294       -0.3579822853        1.6556795353
 H         -4.3272702935       -2.6469200958        0.5573062167
 H         -2.9800991027       -2.6972644874        2.4821618472
 H         -0.9571931409       -1.8708721857        3.6314743840
 H          0.5825828099       -0.3330381139        2.4729593573
 H          0.4573290119        1.5891073884        0.5596929268
 C          0.1224397598        0.9374983290       -1.4489266918
 C         -0.8109557458        2.0518167285       -1.8112136034
 C          0.6599117022        2.1968508454       -2.0578882563
 H          1.0209028769        2.1653876151       -3.0750828412
 H          1.2252355446        2.8545989354       -1.4138887009
 H         -1.4607967868        1.9164251802       -2.6628699469
 H         -1.2480915645        2.6177511122       -1.0028155436
 H          0.1196040969        0.0461203418       -2.0672428736
