  62
        -98.94476361
 C         -1.8247785572       -0.0770534105        0.1751195030
 C         -2.8570754864       -0.7972643103        0.8228394915
 C         -4.1880347990       -0.1818805269        0.7819700223
 C         -4.3535831703        1.0097962116        0.1795058450
 C         -5.6444247407        1.7760050071        0.0750355009
 C         -6.5360106274        1.3377854851       -1.0949647265
 C         -7.2239558520       -0.0163646043       -0.9170870004
 H         -7.7464634507       -0.0339254196        0.0398483766
 H         -7.9787732371       -0.0971839000       -1.7018562525
 C         -6.2809464463       -1.2238281499       -1.0136059995
 H         -5.3452245119       -0.9184074293       -1.4876692680
 H         -6.7298166177       -1.9858588363       -1.6547650991
 C         -5.9629471153       -1.8887683673        0.3256953406
 H         -5.2605869269       -2.7060224010        0.1434330164
 H         -6.8749299685       -2.3161081220        0.7483322497
 C         -5.3367861638       -0.9488839574        1.3643138587
 H         -6.0903763553       -0.2671529870        1.7577590345
 H         -4.9488418848       -1.5557143032        2.1860541854
 H         -5.9336836763        1.3241415652       -2.0063697754
 H         -7.3085246485        2.1002457235       -1.2191912309
 H         -5.3723891065        2.8232914878       -0.0731296619
 H         -6.1996440784        1.6899080346        1.0094668963
 O         -3.3285554997        1.6846345533       -0.4063785176
 C         -2.0465553751        1.1532118833       -0.4434282205
 O         -1.2151385260        1.8643700697       -1.0390880613
 O         -2.6728370864       -1.8958927851        1.4115234486
 C         -0.4265916271       -0.6690746546        0.1449850041
 C          0.5526306162        0.2916162431        0.7695195820
 C          0.2860196465        0.7689824749        2.0515148903
 C          1.1320995485        1.6738645019        2.6599769311
 C          2.2715233202        2.1139865382        2.0086173171
 C          2.5521683778        1.6375509538        0.7344386013
 C          1.7010528969        0.7229568951        0.1256166095
 H          1.9346480437        0.3856568896       -0.8700803580
 N          3.6956384146        2.0732169281        0.0529345409
 S          4.5224894978        1.0646132525       -0.9815307053
 O          5.8538267304        1.6306927047       -1.0430924693
 O          3.8362122474        0.9464741757       -2.2434036616
 C          4.5808109575       -0.5255756671       -0.1718227724
 C          4.3150583316       -1.6616184801       -0.9075973510
 C          4.3749042718       -2.8979267694       -0.2843005739
 C          4.6974316318       -2.9758605376        1.0612274287
 C          4.9683693696       -1.8257610088        1.7867367904
 C          4.9136553728       -0.5879416775        1.1670610913
 H          5.1257831909        0.3193347918        1.7083450624
 H          5.2209199514       -1.8897743707        2.8328493317
 H          4.7388097212       -3.9380807663        1.5468102456
 H          4.1666935001       -3.7923102661       -0.8495499316
 H          4.0621066326       -1.5538007844       -1.9498350300
 H          4.3092200071        2.6803027959        0.5747571089
 H          2.9299555993        2.8300278014        2.4763103359
 H          0.9060607302        2.0408058095        3.6497617539
 H         -0.6064900799        0.4276762475        2.5580047986
 H         -0.4782115370       -1.5677754681        0.7775318370
 C         -0.0691090082       -1.0883277257       -1.2646542545
 C          0.8874438784       -2.2174781560       -1.4977696827
 C         -0.5734805346       -2.4045893585       -1.7734008654
 H         -0.9032593872       -2.4693955554       -2.7995585035
 H         -1.1512060207       -3.0096950809       -1.0900333920
 H          1.5609808702       -2.1497736211       -2.3384668012
 H          1.3087188900       -2.7023387950       -0.6303621969
 H         -0.0569916682       -0.2555607690       -1.9598444993
