  62
        -98.93870916
 C         -1.1830083305       -1.4025073799       -0.1018692301
 C         -2.0193023105       -0.8444822601        0.9017460501
 C         -2.8797800602        0.2767461303        0.4986318404
 C         -2.8327187500        0.7088558907       -0.7743443194
 C         -3.7006226497        1.7827892611       -1.3665444891
 C         -5.1110340498        1.2242481915       -1.6435956394
 C         -6.2165853297        1.8569638915       -0.7981461893
 H         -6.4395864695        2.8508549717       -1.1920266889
 H         -7.1130318499        1.2455900217       -0.9221119195
 C         -5.9142138798        2.0023487309        0.6964773808
 H         -5.2799309496        2.8749776107        0.8592963112
 H         -6.8640363198        2.2121211109        1.1929243108
 C         -5.2634406901        0.7877835005        1.3713465904
 H         -5.4925644503       -0.1257700092        0.8222520101
 H         -5.7007629602        0.6781366103        2.3657457104
 C         -3.7393236101        0.9009315201        1.5623973406
 H         -3.4660991899        1.9528860200        1.6817168809
 H         -3.4634654603        0.3814634397        2.4845081304
 H         -5.3600526797        1.3697187220       -2.6959040394
 H         -5.0925572901        0.1458550115       -1.4722392498
 H         -3.7531612096        2.6319616309       -0.6883225388
 H         -3.2315507296        2.1065645013       -2.2962305790
 O         -2.0170166401        0.1547533908       -1.7064689896
 C         -1.1634243003       -0.8955427895       -1.4004459799
 O         -0.4652178404       -1.2557514293       -2.3703160600
 O         -2.0447924706       -1.2713028005        2.0856118499
 C         -0.2802326708       -2.5481834703        0.3309518196
 C          1.0979954393       -2.0129603807        0.6358438198
 C          1.5864062492       -1.9805061013        1.9365511099
 C          2.8224015693       -1.4212763516        2.2133165701
 C          3.5863722395       -0.8661149414        1.2024561904
 C          3.1007926696       -0.8879107609       -0.0984082896
 C          1.8769981695       -1.4742218905       -0.3784404799
 H          1.5025178595       -1.4729922501       -1.3911287000
 N          3.8327912298       -0.2458052307       -1.1215906194
 S          4.0871000901        1.3892352292       -0.8356710188
 O          4.1169568004        2.0210205596       -2.1358857486
 O          5.2762805101        1.5466813586       -0.0358402687
 C          2.6633678602        1.9211645991        0.1035168113
 C          2.8210296902        2.3197441087        1.4152384415
 C          1.6996067603        2.6658468686        2.1515256115
 C          0.4443541803        2.6040824291        1.5673295214
 C          0.3029608803        2.2095347796        0.2461951313
 C          1.4201014602        1.8601250596       -0.4942728288
 H          1.3319899502        1.5415857900       -1.5216783789
 H         -0.6751619397        2.1573924800       -0.2060261788
 H         -0.4317952697        2.8592772991        2.1422107415
 H          1.8056585803        2.9748869883        3.1787504416
 H          3.8147277602        2.3479639583        1.8313855415
 H          3.4115943498       -0.3698189903       -2.0322593394
 H          4.5383240396       -0.3996553917        1.3986474206
 H          3.1885767393       -1.4049016521        3.2281908302
 H          0.9788960091       -2.3770531114        2.7365220497
 H         -0.7122317510       -2.9158874605        1.2708714094
 C         -0.2316098610       -3.6961230899       -0.6565926108
 C          0.2212018886       -5.0422508002       -0.1791526813
 C         -1.2184969013       -4.8158347597       -0.5282631413
 H         -1.6097260413       -5.2627142093       -1.4299385615
 H         -1.9358952013       -4.7608164899        0.2775362687
 H          0.8223030085       -5.6472819501       -0.8403674915
 H          0.4797542586       -5.1416994006        0.8641175087
 H          0.0484205591       -3.3976069796       -1.6581912907
