  62
        -98.94501858
 C         -0.8153112607       -1.5776157186       -1.1247102817
 C         -2.1212744408       -1.7421962384       -0.5976292317
 C         -3.0457799402       -0.6198321878       -0.7792579907
 C         -2.6266398198        0.4885110225       -1.4148279498
 C         -3.4306933892        1.7400624431       -1.6388651687
 C         -3.4214770686        2.6880363421       -0.4312361080
 C         -4.2923221487        2.2457559115        0.7456333118
 H         -4.3961035682        3.1079468910        1.4076896925
 H         -5.2894136689        1.9867958623        0.3864517416
 C         -3.7100381892        1.0774442306        1.5537437207
 H         -2.6406563593        0.9879197502        1.3449526706
 H         -3.8022918290        1.2948267297        2.6210735709
 C         -4.3906690799       -0.2698613589        1.3088445797
 H         -3.8593481302       -1.0289434096        1.8888729090
 H         -5.4215749198       -0.2289960987        1.6694894898
 C         -4.4056237902       -0.7202875677       -0.1571170207
 H         -5.1271494600       -0.1321156269       -0.7241304001
 H         -4.7073763307       -1.7705442875       -0.1872416415
 H         -2.3914400785        2.8057974113       -0.0835690779
 H         -3.7753358682        3.6634169825       -0.7744958171
 H         -4.4588478393        1.4815938938       -1.8942988889
 H         -2.9794137290        2.2557319935       -2.4893904384
 O         -1.3859631298        0.5923959323       -1.9522029199
 C         -0.4357080702       -0.4124768983       -1.7925542508
 O          0.6638532099       -0.1373078284       -2.3053157606
 O         -2.4955175512       -2.7872931588        0.0017705175
 C          0.1849723488       -2.6736583694       -0.7959145227
 C          0.7563348490       -2.3793543708        0.5692774275
 C          0.7991339786       -3.3379156217        1.5736631367
 C          1.2521221989       -3.0054238929        2.8392624869
 C          1.6413210596       -1.7109128633        3.1337368280
 C          1.6052367100       -0.7462471325        2.1325140888
 C          1.1971924797       -1.0950622713        0.8558474185
 H          1.1799420700       -0.3427595706        0.0840799291
 N          1.9783962706        0.5823663371        2.3754701398
 S          1.2183402811        1.8190306682        1.5355167409
 O          1.4440340118        2.9922092474        2.3575453119
 O         -0.1661620890        1.5138660391        1.2588906108
 C          2.1552029011        1.9991773490        0.0347707610
 C          3.5018318810        1.6947049983        0.0374915106
 C          4.2310961909        1.8842143389       -1.1245117093
 C          3.6079804311        2.3801212401       -2.2593957088
 C          2.2577344112        2.6879576608       -2.2427866585
 C          1.5215271612        2.4960357402       -1.0851550985
 H          0.4633847214        2.7021526707       -1.0408515083
 H          1.7689678513        3.0627340617       -3.1275675081
 H          4.1763247111        2.5225380606       -3.1650963488
 H          5.2812757008        1.6404008384       -1.1431738996
 H          3.9528233608        1.3058318373        0.9355027203
 H          2.1482126508        0.8209997462        3.3412644000
 H          1.9602315098       -1.4442791343        4.1297296882
 H          1.2789514686       -3.7573461136        3.6133106663
 H          0.4507157981       -4.3390268113        1.3666988059
 H         -0.4104025517       -3.5971715592       -0.7140317334
 C          1.2456479786       -2.9028874490       -1.8595169830
 C          2.6678557188       -2.4621253499       -1.7102356727
 C          2.3262954781       -3.9179207898       -1.6280452639
 H          2.6108118077       -4.5652844992       -2.4434804345
 H          2.3673409579       -4.3853807906       -0.6557444543
 H          3.1676671189       -2.0897055194       -2.5907822725
 H          2.9500441291       -1.9492921307       -0.8042142123
 H          0.8305045885       -2.8499705680       -2.8603969429
