  62
        -98.94092178
 C         -2.2881595081       -0.9032079677       -0.2004867719
 C         -3.6007470277       -1.2110669623        0.2321006927
 C         -4.6699894428       -0.3753984415       -0.3245076576
 C         -4.3670344726        0.5958234850       -1.2051250989
 C         -5.3486385875        1.5150924526       -1.8803095481
 C         -5.7334481530        2.7413518196       -1.0411776717
 C         -6.6485434743        2.4531314517        0.1496146807
 H         -7.0102522173        3.4160529163        0.5155513983
 H         -7.5162897835        1.8867504624       -0.1896933473
 C         -5.9664787063        1.7101329710        1.3068601657
 H         -4.8818138550        1.7848653322        1.1981303440
 H         -6.2266884625        2.1913803835        2.2523163566
 C         -6.3518969105        0.2357001249        1.4279070519
 H         -5.7859923425       -0.1997068681        2.2553844078
 H         -7.4144476541        0.1531680158        1.6665541410
 C         -6.0676061196       -0.5967411303        0.1706032660
 H         -6.7901193244       -0.3591820024       -0.6096374722
 H         -6.1646326753       -1.6537911530        0.4295503225
 H         -4.8183859038        3.2243192626       -0.6903179424
 H         -6.2454162963        3.4421143842       -1.7046794360
 H         -6.2472624472        0.9588149554       -2.1482699783
 H         -4.8674270847        1.8625003070       -2.7970913824
 O         -3.0929621231        0.8490034510       -1.6092776606
 C         -2.0216781542        0.1266294474       -1.1022522907
 O         -0.9101307779        0.4912131572       -1.5331595060
 O         -3.8642812808       -2.1370254030        1.0449177396
 C         -1.1271847579       -1.7123694798        0.3497412361
 C         -0.1746861822       -0.7966592878        1.0774293870
 C         -0.6700256439       -0.0203174921        2.1229801712
 C          0.1531291993        0.8523494262        2.8060114598
 C          1.4861809621        0.9751382518        2.4544263320
 C          1.9938882989        0.1984017632        1.4204884944
 C          1.1668390089       -0.6915868085        0.7474088555
 H          1.5821993201       -1.2765626743       -0.0545630197
 N          3.3599574969        0.2765434601        1.0829373010
 S          3.8272375614        0.3817343055       -0.5378789877
 O          3.3104553075        1.5963823132       -1.1306214271
 O          3.5176465402       -0.8535375919       -1.2090344488
 C          5.5933907615        0.5167475711       -0.3218723323
 C          6.1993605360        1.7565163826       -0.3925416633
 C          7.5683468629        1.8466809670       -0.1941474081
 C          8.3036611532        0.7019749381        0.0733667107
 C          7.6816783479       -0.5360732947        0.1398105733
 C          6.3137497194       -0.6328615871       -0.0588933042
 H          5.7885390265       -1.5729623326       -0.0251914200
 H          8.2570892332       -1.4243881576        0.3449004986
 H          9.3685674993        0.7747561658        0.2280326657
 H          8.0548781492        2.8072164840       -0.2490514463
 H          5.5888687693        2.6177817824       -0.6120807320
 H          3.8254092141        1.0142883434        1.5973351368
 H          2.1283543537        1.6669859483        2.9788234130
 H         -0.2457124204        1.4500832090        3.6119737095
 H         -1.7156446983       -0.1081683972        2.3861998265
 H         -1.5735589998       -2.3993736166        1.0842889017
 C         -0.4762060011       -2.5292024818       -0.7451443067
 C          0.2613711401       -3.7878899857       -0.4026788930
 C         -1.0599914411       -3.8611033496       -1.1054703253
 H         -1.0782879095       -4.1506793077       -2.1454463725
 H         -1.9214380870       -4.1920657860       -0.5438884039
 H          1.1558735138       -4.0240952477       -0.9590436197
 H          0.2990146848       -4.0752950461        0.6371821783
 H         -0.0909520218       -1.9168679236       -1.5538876679
