  62
        -98.94003212
 C         -2.4314629106       -0.9297445388        0.0669663048
 C         -3.6793812363       -0.8716530932        0.7405815236
 C         -4.7349204602       -0.0824254069        0.0934111456
 C         -4.4663950673        0.5456242692       -1.0654177450
 C         -5.4293387631        1.4255477797       -1.8074034944
 C         -5.2938381521        2.8908750434       -1.3704621588
 C         -5.3025347545        3.0869872852        0.1455896936
 H         -4.4067368167        2.6271267314        0.5693918907
 H         -5.2321675675        4.1603061865        0.3347565314
 C         -6.5436595823        2.5238900366        0.8520850407
 H         -7.3433473497        2.3664747688        0.1273926033
 H         -6.9008910203        3.2617645026        1.5735378410
 C         -6.2995636887        1.2270517821        1.6260119883
 H         -7.1716021278        1.0386185794        2.2579147743
 H         -5.4380337434        1.3510150772        2.2870210520
 C         -6.0746812577       -0.0271794356        0.7721257051
 H         -6.1093027633       -0.8933269831        1.4395387565
 H         -6.8805603813       -0.1244132550        0.0416530468
 H         -4.3515366839        3.2824371998       -1.7604513135
 H         -6.1101891868        3.4608928659       -1.8177480566
 H         -5.2106231913        1.3519038106       -2.8740691957
 H         -6.4441139811        1.0747094581       -1.6294898882
 O         -3.2555086347        0.4855898235       -1.6721798264
 C         -2.2028997727       -0.2411879385       -1.1257424878
 O         -1.1573744200       -0.1842605388       -1.7978068676
 O         -3.8995471385       -1.4542989522        1.8358684122
 C         -1.3265277321       -1.7386139756        0.7237879562
 C         -0.0506738827       -0.9391909487        0.7869612066
 C          0.0506632426        0.1029394710        1.7039649792
 C          1.2028157383        0.8612486667        1.7889231030
 C          2.2780568833        0.5993981444        0.9580744998
 C          2.1856041745       -0.4337546862        0.0361108028
 C          1.0305195786       -1.2007355134       -0.0393247631
 H          0.9648680251       -1.9898066463       -0.7725892992
 N          3.2690656544       -0.6897715436       -0.8226505231
 S          4.7785998605       -0.9358139910       -0.1356738227
 O          5.5129786743       -1.7278425434       -1.0984957095
 O          4.6682553591       -1.4868826981        1.1957478268
 C          5.4927534173        0.6934325150       -0.0619327221
 C          5.5742526718        1.4233909004       -1.2315714603
 C          6.1385324192        2.6883733206       -1.1924338947
 C          6.6119261136        3.1976966339        0.0077839541
 C          6.5257123167        2.4509421598        1.1727315469
 C          5.9611223580        1.1852249896        1.1406148856
 H          5.8672384836        0.5706994426        2.0217618412
 H          6.8945603520        2.8487215429        2.1045280443
 H          7.0507103783        4.1826509876        0.0349496971
 H          6.2066314705        3.2724309744       -2.0961397920
 H          5.1971153340        0.9911107408       -2.1434498531
 H          3.0717523640       -1.3839936184       -1.5285743986
 H          3.1788160987        1.1888354404        1.0143695344
 H          1.2652985013        1.6653836020        2.5063714333
 H         -0.7909937941        0.3126938826        2.3501137824
 H         -1.6805381692       -1.8898780442        1.7570163198
 C         -1.1277059197       -3.1272700080        0.1339130337
 C         -2.2998121208       -3.9266443207       -0.3488521758
 C         -1.2805678773       -3.4268518970       -1.3261232255
 H         -0.6061414877       -4.1437979262       -1.7724098701
 H         -1.5488977996       -2.6148605189       -1.9834915454
 H         -2.3293997186       -4.9829465111       -0.1280101454
 H         -3.2682629828       -3.4484161680       -0.3320723792
 H         -0.3540673362       -3.6776877891        0.6622457981
