  62
        -98.94097895
 C         -2.5847049871       -1.3407358297        0.2808916942
 C         -2.8188972949       -0.5058043555       -0.8391094723
 C         -3.5991231830        0.7121509180       -0.5756488355
 C         -4.0335421828        0.9824755508        0.6676128264
 C         -4.8393323493        2.1816587685        1.0870818704
 C         -3.9916598367        3.4275962519        1.3787134619
 C         -3.4018754767        4.1165136000        0.1473438850
 H         -4.1945546625        4.3059433988       -0.5772437928
 H         -3.0194942600        5.0853877813        0.4743465931
 C         -2.2610474972        3.3417356703       -0.5277528558
 H         -1.8667946481        2.5911413294        0.1626775370
 H         -1.4354920645        4.0225828406       -0.7503254106
 C         -2.6496665739        2.6579004592       -1.8387298209
 H         -1.7753893379        2.1172006303       -2.2110653221
 H         -2.9157132302        3.4145152018       -2.5803893645
 C         -3.8116682049        1.6631904696       -1.7151560012
 H         -4.7522451819        2.1993391888       -1.5927328245
 H         -3.8583183989        1.0761103535       -2.6356719135
 H         -4.6326862872        4.1445015293        1.8968180068
 H         -3.1838679769        3.1498539089        2.0601039509
 H         -5.5792804547        2.4143017504        0.3209527248
 H         -5.3622524747        1.8992654135        2.0032550270
 O         -3.7904758628        0.1550650452        1.7181190954
 C         -3.0499942840       -1.0028964226        1.5556629803
 O         -2.8844735653       -1.6529068086        2.6071609815
 O         -2.4080654537       -0.7405762944       -2.0058558785
 C         -1.7785305636       -2.6296707032        0.2088133288
 C         -0.3135248894       -2.3142987543        0.3693992358
 C          0.4440320410       -2.8865749377        1.3834056542
 C          1.7747773184       -2.5412973499        1.5478292982
 C          2.3737128895       -1.6189189622        0.7086164653
 C          1.6229986953       -1.0389137776       -0.3057575206
 C          0.2938228078       -1.3924735000       -0.4734679448
 H         -0.2866598303       -0.9374954715       -1.2632380622
 N          2.2216602195       -0.0822331663       -1.1535744777
 S          2.7450878634        1.3247737579       -0.3894081262
 O          1.9868235308        1.5821158676        0.8141752336
 O          2.7130981321        2.3536721005       -1.4058013085
 C          4.4395716433        0.9622454427        0.0191090831
 C          5.3111940949        0.6844339842       -1.0158801588
 C          6.6324371820        0.3924422450       -0.7175112339
 C          7.0575635827        0.3853391371        0.6028599381
 C          6.1708316043        0.6695964389        1.6301699161
 C          4.8472341950        0.9615603642        1.3384796496
 H          4.1200718995        1.1829838192        2.1034581647
 H          6.5030370666        0.6638050911        2.6558857489
 H          8.0862678303        0.1570428513        0.8329060720
 H          7.3250478521        0.1712090286       -1.5134621617
 H          4.9396226934        0.7058740087       -2.0267391343
 H          1.6313521198        0.1624638284       -1.9371422309
 H          3.4074610542       -1.3409202735        0.8352025722
 H          2.3504513863       -2.9920006711        2.3417184783
 H         -0.0232033039       -3.5891722195        2.0578791757
 H         -2.0911676980       -3.2122026169        1.0892973519
 C         -2.0941301630       -3.4631192599       -1.0263402819
 C         -1.0970535940       -3.7704644350       -2.0997600379
 C         -1.5256980978       -4.8460891371       -1.1507852142
 H         -2.1631568550       -5.6381745300       -1.5129918307
 H         -0.8166539683       -5.1569884054       -0.3981705218
 H         -1.4551109372       -3.7997012825       -3.1176486521
 H         -0.0981546334       -3.3753070984       -2.0022867989
 H         -3.1202066354       -3.3296628071       -1.3526163619
