  62
        -98.93572815
 C         -1.8561077671       -0.6157246577        0.0316322143
 C         -2.9571769758       -0.4991681848        0.9189642460
 C         -4.0457194076        0.4081593131        0.5218554181
 C         -3.9474318724        1.0814507173       -0.6366045397
 C         -4.9050030560        2.0848221484       -1.2293711073
 C         -6.4044993613        1.7736941857       -1.1377358239
 C         -6.7637052619        0.2834696569       -1.2305941462
 H         -7.5346626550        0.1508589589       -1.9919030459
 H         -5.8920299653       -0.2925951988       -1.5459031071
 C         -7.3010491326       -0.2839115992        0.0853912194
 H         -7.9976704765        0.4369788834        0.5189297778
 H         -7.8652799483       -1.1947160987       -0.1291750836
 C         -6.2410188871       -0.6431335359        1.1259497445
 H         -6.7565557200       -0.9236838018        2.0475515548
 H         -5.6785381171       -1.5201993604        0.7946439817
 C         -5.2258864681        0.4656379417        1.4486247765
 H         -4.8306456693        0.2777526602        2.4506363900
 H         -5.6964065660        1.4459150595        1.4406175715
 H         -6.8046630476        2.1786694063       -0.2093414020
 H         -6.8887907980        2.3170416995       -1.9510060474
 H         -4.6126951187        2.1705142759       -2.2789068696
 H         -4.7116593423        3.0551110593       -0.7622172253
 O         -2.8690689713        0.9495501444       -1.4569847934
 C         -1.8023089843        0.1118107327       -1.1565794147
 O         -0.9049084401        0.1275978144       -2.0201371435
 O         -3.0263394640       -1.1313481669        2.0064480887
 C         -0.7521134637       -1.5744880091        0.4424860899
 C          0.3863716904       -0.8626972810        1.1265358827
 C          0.8873690853       -1.3204210981        2.3395153580
 C          1.9495145141       -0.6777374727        2.9523763444
 C          2.5357180466        0.4302205084        2.3673493017
 C          2.0428734429        0.8946107491        1.1544338424
 C          0.9761990768        0.2509151739        0.5438630827
 H          0.6004417184        0.6163685096       -0.4005210489
 N          2.6386208490        2.0156533583        0.5398547883
 S          4.2737517816        1.8956192806        0.1884228768
 O          5.0229381066        1.9575687227        1.4180069396
 O          4.5399479497        2.9384428776       -0.7754611911
 C          4.4596408569        0.2890636119       -0.5609202438
 C          4.7689968967       -0.8002649674        0.2289998759
 C          4.8326332864       -2.0540814122       -0.3576137044
 C          4.5902000557       -2.1961629998       -1.7150068804
 C          4.2864682084       -1.0911304285       -2.4954729345
 C          4.2122616097        0.1639166953       -1.9135511142
 H          3.9776557624        1.0475333064       -2.4856104941
 H          4.0976477363       -1.2029794137       -3.5509815052
 H          4.6353373812       -3.1736718381       -2.1678666270
 H          5.0671064222       -2.9155521038        0.2463267035
 H          4.9590630857       -0.6472931438        1.2783225801
 H          2.1386174492        2.3191619387       -0.2842050866
 H          3.3671626374        0.9406495225        2.8260000305
 H          2.3239096425       -1.0413167521        3.8970751075
 H          0.4295566350       -2.1788291809        2.8086618066
 H         -1.2238071357       -2.2310288971        1.1905276144
 C         -0.2812422214       -2.4641546379       -0.7011716719
 C          1.0290772496       -2.2974973238       -1.4034887021
 C          0.8212204060       -3.4579064592       -0.4806121116
 H          0.7177245877       -4.4461261471       -0.9016383371
 H          1.3285763014       -3.4304571086        0.4716881816
 H          1.0488686442       -2.4710567364       -2.4682072174
 H          1.6853388836       -1.5034254371       -1.0849687432
 H         -1.1138126773       -2.7902435955       -1.3173057299
