  62
        -98.94021276
 C         -1.4787143191       -1.5969867655       -0.1530957983
 C         -2.5441559961       -1.2140374646        0.7013501728
 C         -3.4642791154       -0.1812746650        0.1967960714
 C         -3.2603046390        0.3306880988       -1.0290843217
 C         -4.0832613669        1.3754160262       -1.7321784339
 C         -3.4980674404        2.7837337369       -1.5399418816
 C         -3.9145182711        3.4913143876       -0.2498893250
 H         -3.2948302871        4.3861147748       -0.1572518867
 H         -4.9513400159        3.8213227248       -0.3431179583
 C         -3.7840589779        2.6635604910        1.0316655006
 H         -3.7530378029        3.3568687805        1.8743234481
 H         -2.8403953861        2.1158581732        1.0268227597
 C         -4.9518969470        1.6867068489        1.2377661587
 H         -5.7475163745        1.9295811904        0.5335583767
 H         -5.3700671004        1.8286223204        2.2363427505
 C         -4.5927674043        0.1977758907        1.1158848443
 H         -4.2930399847       -0.1871793310        2.0954796363
 H         -5.4866247647       -0.3629572287        0.8227546986
 H         -3.8097057566        3.4065814113       -2.3810216829
 H         -2.4093907488        2.7048405153       -1.5859665398
 H         -5.1162462182        1.3317420877       -1.3992374501
 H         -4.0476725301        1.1312376711       -2.7963977217
 O         -2.2081689274       -0.0421960372       -1.8068921845
 C         -1.2904609312       -0.9972965458       -1.3977235931
 O         -0.3862887805       -1.2043605738       -2.2311852845
 O         -2.7250970157       -1.7232104927        1.8387632909
 C         -0.5395778046       -2.6822179228        0.3527241387
 C          0.7633258380       -2.0526611108        0.7794666551
 C          0.9799887628       -1.7208193572        2.1130280898
 C          2.1399698768       -1.0743822448        2.5018764521
 C          3.0953689401       -0.7205301804        1.5654598879
 C          2.8773062603       -1.0322606966        0.2300149551
 C          1.7337917612       -1.7170397707       -0.1529107013
 H          1.5708266539       -1.9378072359       -1.1962114565
 N          3.7970801038       -0.5877147453       -0.7415141317
 S          4.1266397873        1.0564825327       -0.6834908814
 O          4.3376966667        1.4663414191       -2.0543813303
 O          5.2359028409        1.2848113318        0.2099488813
 C          2.6594714569        1.8194216801       -0.0043083821
 C          2.7708247656        2.6203487697        1.1143606328
 C          1.6258323228        3.1746481969        1.6634697263
 C          0.3899330271        2.9074398456        1.0959769165
 C          0.2962267237        2.1011903327       -0.0271471064
 C          1.4374167369        1.5563495739       -0.5914066843
 H          1.3717441669        0.9258962339       -1.4648352765
 H         -0.6637088860        1.8771602860       -0.4655600189
 H         -0.5061180683        3.3242082410        1.5287264577
 H          1.6983356736        3.8033998706        2.5360745453
 H          3.7494493669        2.7855763218        1.5349279677
 H          3.5320255842       -0.8537791510       -1.6798797321
 H          3.9945725703       -0.1934296415        1.8416168186
 H          2.2965274014       -0.8309500025        3.5413889070
 H          0.2186907063       -1.9594550847        2.8415168937
 H         -1.0277678667       -3.0864954111        1.2490651950
 C         -0.3547729955       -3.8075533992       -0.6446176197
 C          0.2209044235       -5.1081195831       -0.1728579391
 C         -1.2271674269       -5.0216957303       -0.5484130353
 H         -1.5535535030       -5.4945993437       -1.4626250611
 H         -1.9623653128       -5.0488359777        0.2424996365
 H          0.8919484877       -5.6430055433       -0.8273018287
 H          0.4687310540       -5.1918314812        0.8744647280
 H         -0.0912843763       -3.4713844585       -1.6392652957
