  62
        -98.94342524
 C         -2.4903579862       -1.1301734100        0.0140989264
 C         -3.4577341307       -0.6086302058        0.9154261404
 C         -4.4385841612        0.3245841872        0.3540086572
 C         -4.3985626973        0.6207687088       -0.9573442130
 C         -5.3462953805        1.5297599190       -1.6915809216
 C         -4.9883747026        3.0190784453       -1.5931869351
 C         -5.2473764824        3.6619163082       -0.2300355052
 H         -5.1637209157        4.7421534985       -0.3646231276
 H         -6.2710863828        3.4513175804        0.0808650328
 C         -4.2717245115        3.2249174667        0.8717097786
 H         -3.3904011166        2.7657617602        0.4176113921
 H         -3.9263102759        4.1032266476        1.4215478893
 C         -4.8629540371        2.2544175975        1.8942818015
 H         -5.6605380318        2.7502740099        2.4518806397
 H         -4.0759422977        1.9813052516        2.6017357512
 C         -5.4232622400        0.9615971177        1.2872851451
 H         -5.6154805389        0.2561676438        2.0993186380
 H         -6.3608734337        1.1639036508        0.7699230985
 H         -3.9367323419        3.1441825244       -1.8613852496
 H         -5.5865906835        3.5469297633       -2.3395096536
 H         -5.3078442924        1.2349915653       -2.7425364563
 H         -6.3608965318        1.3733745178       -1.3239658457
 O         -3.4707030231        0.0880246676       -1.7933623283
 C         -2.4877695562       -0.7784424891       -1.3354865838
 O         -1.7037779392       -1.1467488460       -2.2351132370
 O         -3.5036062464       -0.9212780977        2.1344694382
 C         -1.4766402037       -2.0992094322        0.5992004112
 C         -0.1447629760       -1.4365402035        0.8618933937
 C          0.3556385472       -1.3359890957        2.1548306224
 C          1.5876780162       -0.7513044276        2.3902864126
 C          2.3423196810       -0.2509176063        1.3445701200
 C          1.8493580300       -0.3418860344        0.0492954673
 C          0.6178849276       -0.9372021588       -0.1844639802
 H          0.2376683563       -1.0020002936       -1.1934081276
 N          2.5942850952        0.1893392815       -1.0190288659
 S          4.1960546257       -0.2875150609       -1.1766005692
 O          4.5216734507       -0.0782834538       -2.5704955809
 O          4.4059256265       -1.6212876343       -0.6619043641
 C          5.0934553176        0.8926592074       -0.1900430998
 C          5.9781952422        0.4509125120        0.7741807560
 C          6.6783688896        1.3863711894        1.5202194548
 C          6.4828870812        2.7393572956        1.2892867927
 C          5.5918707975        3.1665634880        0.3157890425
 C          4.8899673285        2.2367576799       -0.4345764149
 H          4.1899366200        2.5266131792       -1.2005590109
 H          5.4418904665        4.2196029488        0.1396960447
 H          7.0277308051        3.4656811830        1.8714433849
 H          7.3712521416        1.0563105607        2.2774357811
 H          6.0917531575       -0.6110024121        0.9229304530
 H          2.1162062606        0.1244300190       -1.9066820824
 H          3.3017559675        0.2070508461        1.5217161348
 H          1.9639363429       -0.6816410125        3.3994261310
 H         -0.2334948766       -1.7124881911        2.9783508710
 H         -1.8971572100       -2.3939104741        1.5702045368
 C         -1.2919713416       -3.3500297111       -0.2388094454
 C         -0.7425881432       -4.5837251395        0.4096464604
 C         -2.1826388389       -4.5308983232       -0.0024784804
 H         -2.5002313756       -5.1144277489       -0.8535459629
 H         -2.9314380941       -4.4445183186        0.7713688782
 H         -0.0655931889       -5.2045603496       -0.1570047604
 H         -0.5148955554       -4.5349532710        1.4636761018
 H         -0.9993753002       -3.1461453973       -1.2608420342
