  62
        -98.93515384
 C         -2.2509835707       -1.0345017183        0.0470909388
 C         -3.2254280312       -0.5581236631        0.9615980982
 C         -4.2426252282        0.3741970708        0.4443757582
 C         -4.2149244466        0.7057055816       -0.8585189106
 C         -5.1324667250        1.6267855217       -1.6218503891
 C         -6.6364814079        1.4866506420       -1.3402632357
 C         -7.2244951563        2.6709751676       -0.5712403559
 H         -6.7733414921        3.5901908169       -0.9506097842
 H         -8.2956285239        2.7245146950       -0.7783587698
 C         -7.0500743096        2.6112279020        0.9452994461
 H         -7.3830667050        3.5682166660        1.3538209883
 H         -7.7049440570        1.8385595793        1.3538951515
 C         -5.6242427463        2.3408959496        1.4302455649
 H         -4.9043197879        2.8953528720        0.8294120361
 H         -5.5426695330        2.7172726671        2.4521303238
 C         -5.2533231097        0.8505407564        1.4517478778
 H         -4.8166639430        0.5945061968        2.4219670940
 H         -6.1563733054        0.2400965140        1.3595258963
 H         -6.8288115493        0.5562070066       -0.8082289278
 H         -7.1498150485        1.4209575096       -2.3009731209
 H         -4.8160460505        2.6574695866       -1.4432742116
 H         -4.9308286540        1.4178374728       -2.6749844203
 O         -3.2615872372        0.2238953894       -1.7040560584
 C         -2.2632582569       -0.6407061115       -1.2897568166
 O         -1.4814718736       -0.9644966700       -2.2080090355
 H          0.4557928722       -0.8084548194       -1.1697604068
 C          0.8477689974       -0.7781837499       -0.1636933385
 C          0.1058764536       -1.3298505922        0.8712519474
 C          0.6223897592       -1.2747090094        2.1605104460
 C          1.8491848715       -0.6820738837        2.4037028073
 C          2.5831097941       -0.1299772216        1.3693231271
 C          2.0744950886       -0.1767263853        0.0778699283
 N          2.8024902575        0.4017772109       -0.9789253610
 S          4.3853968007       -0.1155052814       -1.2052926139
 O          4.6775379224        0.1426328528       -2.5983402646
 O          4.5669003352       -1.4752515634       -0.7512807734
 C          5.3478091806        0.9939340125       -0.1979649279
 C          6.1627941538        0.4892494512        0.7964262320
 C          6.9100215290        1.3708045455        1.5621506278
 C          6.8299724166        2.7337423050        1.3207128242
 C          6.0086648320        3.2243536728        0.3163432352
 C          5.2602914115        2.3484100454       -0.4536285590
 H          4.6145576807        2.6873475791       -1.2465553794
 H          5.9492324089        4.2848147048        0.1311656697
 H          7.4112208272        3.4180084631        1.9184203478
 H          7.5495677071        0.9913787072        2.3428054232
 H          6.1887347753       -0.5776814445        0.9505718014
 H          2.3016204095        0.3847505520       -1.8564268624
 H          3.5377582976        0.3355165538        1.5524727631
 H          2.2376636783       -0.6475314082        3.4100286974
 H          0.0499027901       -1.6930372996        2.9755210159
 C         -1.2182434176       -2.0034545874        0.5978024337
 H         -1.6271126070       -2.3351807246        1.5615885137
 C         -1.0190066565       -3.2237449787       -0.2811918112
 C         -0.4539127491       -4.4717136176        0.3249664695
 C         -1.8948664791       -4.4228120837       -0.0845008662
 H         -2.2060859623       -4.9809614719       -0.9547505120
 H         -2.6439234939       -4.3716965829        0.6922243327
 H          0.2303361638       -5.0643186083       -0.2627812095
 H         -0.2260388619       -4.4558318621        1.3799401514
 H         -0.7295926628       -2.9819233186       -1.2958770149
 O         -3.2475552449       -0.9045238402        2.1731032453
