  62
        -98.94447505
 C          2.6472458497        1.2942810370        0.1109542052
 C          2.5765197719        0.2952067858       -0.8900586415
 C          3.5503907418       -0.8008558920       -0.7720614484
 C          4.4395291740       -0.7932698934        0.2371904325
 C          5.4484829108       -1.8717019248        0.5031165229
 C          4.8862926155       -2.9346597799        1.4572909817
 C          3.5018020718       -3.4499212855        1.0631635311
 H          3.2213510522       -4.2170478157        1.7882329620
 H          2.7751249316       -2.6393219001        1.1591231733
 C          3.4209726456       -4.0343894436       -0.3539707530
 H          4.4223187414       -4.2730345913       -0.7144979730
 H          2.8579552294       -4.9692746824       -0.3151667224
 C          2.7172755038       -3.1357312761       -1.3729624468
 H          2.5220639398       -3.7287087926       -2.2708638031
 H          1.7479038513       -2.8192983205       -0.9767663470
 C          3.4945456419       -1.8870323484       -1.8090694097
 H          2.9729073925       -1.4557419564       -2.6685982135
 H          4.5001244745       -2.1719030531       -2.1251948663
 H          5.5884928573       -3.7692780995        1.4964463444
 H          4.8168411755       -2.5007030044        2.4573112320
 H          6.3274842781       -1.4145565158        0.9604317704
 H          5.7384737976       -2.3313321023       -0.4396059671
 O          4.4874997692        0.1906661332        1.1704171267
 C          3.5863096887        1.2400766301        1.1447725609
 O          3.7239356704        2.0557654852        2.0777962843
 O          1.7543460698        0.3067070181       -1.8447828731
 C          1.6736191592        2.4634218706        0.1429247710
 C          0.3117102751        1.9239299329        0.5068131343
 C         -0.0141566079        1.7439365586        1.8482784592
 C         -1.2249362912        1.1843950834        2.2109177145
 C         -2.1311607908        0.7816494775        1.2449019078
 C         -1.8069516185        0.9397797677       -0.0952206054
 C         -0.6008386023        1.5255376418       -0.4572473274
 H         -0.3552407011        1.6287019438       -1.5021472379
 N         -2.7124864600        0.5174355759       -1.0841039640
 S         -3.3761636512       -1.0179732531       -0.9371923916
 O         -2.5082575076       -1.9124549695       -0.2063870548
 O         -3.7230926956       -1.4132394768       -2.2850696636
 C         -4.8770574482       -0.7350306142       -0.0194486235
 C         -5.1393846214       -1.4714537180        1.1190010697
 C         -6.3190565870       -1.2409624136        1.8099217717
 C         -7.2114275786       -0.2840005610        1.3518324580
 C         -6.9345264023        0.4454832415        0.2050828887
 C         -5.7577585608        0.2190927182       -0.4905512152
 H         -5.5065319029        0.7618280563       -1.3863940068
 H         -7.6308564827        1.1889637240       -0.1479968013
 H         -8.1279473833       -0.1058026158        1.8917786251
 H         -6.5357344398       -1.8076388072        2.7012587704
 H         -4.4133548807       -2.2011104661        1.4411497889
 H         -2.3722853382        0.6654701536       -2.0238538195
 H         -3.0716032536        0.3325836958        1.5198561569
 H         -1.4655943865        1.0557807698        3.2553452552
 H          0.7041012272        2.0350076827        2.6023843322
 H          2.0116837141        3.1111263344        0.9623812848
 C          1.6935317623        3.2608245113       -1.1444501525
 C          1.0630181535        4.6197950982       -1.1701897776
 C          2.5539874799        4.4837951534       -1.2323277810
 H          3.0541566267        4.6946658920       -2.1657249143
 H          3.1298679338        4.7532060356       -0.3589399235
 H          0.5373509259        4.9282182847       -2.0608626590
 H          0.6252587707        4.9817737195       -0.2522824063
 H          1.6174853641        2.6487406367       -2.0340787987
