  62
        -98.93604887
 C         -1.9855744788       -1.3821385803       -0.0616807414
 C         -2.6722451091       -0.6552813810        0.9436970189
 C         -3.4079591495        0.5508268089        0.5268270095
 C         -3.3670729495        0.9196897496       -0.7656671304
 C         -4.0198035299        2.1036716097       -1.4326723498
 C         -3.9078166204        3.4481738694       -0.6970887592
 C         -5.2355704406        3.9341376986       -0.1133880090
 H         -5.1901557510        5.0196395086       -0.0012026485
 H         -6.0301855205        3.7133074887       -0.8290060391
 C         -5.6014884705        3.3436221478        1.2471687607
 H         -4.9467754506        3.7673191177        2.0116902009
 H         -6.6209743406        3.6595633474        1.4802053908
 C         -5.5273669699        1.8181675478        1.3411126900
 H         -5.9187730897        1.3594528881        0.4340399697
 H         -6.1744416899        1.5036299072        2.1625549998
 C         -4.1160948098        1.2866164782        1.6316741598
 H         -3.4727060001        2.1022097682        1.9751886502
 H         -4.1559255395        0.5694582077        2.4575002694
 H         -3.5614947107        4.1927426198       -1.4159360588
 H         -3.1499997304        3.3802999292        0.0824337808
 H         -5.0708266998        1.8661615394       -1.6148679200
 H         -3.5413078999        2.1756948903       -2.4121570398
 O         -2.6939126592        0.1931952203       -1.7010282107
 C         -1.9815681889       -0.9506597596       -1.3868880812
 O         -1.4148252086       -1.4639678390       -2.3747538014
 O         -2.6766747990       -1.0093117016        2.1535110787
 C         -1.2083365184       -2.6057714102        0.3989142180
 C          0.2340418515       -2.2225930598        0.6279371783
 C          0.7988894615       -2.2625659403        1.8971604083
 C          2.1022606313       -1.8445275499        2.1037905785
 C          2.8612387112       -1.3600374391        1.0528878088
 C          2.3017663612       -1.3116568487       -0.2165626612
 C          1.0082524314       -1.7587477891       -0.4265885015
 H          0.5805422814       -1.7031199087       -1.4170694215
 N          3.0503628211       -0.7456121479       -1.2821904209
 S          3.0078479805        0.9426707620       -1.2424074501
 O          1.7326729203        1.4288632514       -0.7601963799
 O          3.4022075904        1.3780109128       -2.5646431599
 C          4.2898036203        1.3464804219       -0.0762782399
 C          3.9501696301        1.8419658812        1.1670982304
 C          4.9606081399        2.1310332911        2.0710244005
 C          6.2845520800        1.9199707717        1.7168512405
 C          6.6088124202        1.4234106325        0.4628358303
 C          5.6036030504        1.1321377525       -0.4454703199
 H          5.8075086105        0.7505581931       -1.4319644801
 H          7.6395201303        1.2619659329        0.1913154902
 H          7.0682458699        2.1445445417        2.4230123706
 H          4.7097701198        2.5166861805        3.0461067007
 H          2.9064193900        1.9848948007        1.3976736104
 H          2.6992480512       -1.0381908876       -2.1853662311
 H          3.8724142511       -1.0196890789        1.2058352390
 H          2.5272461013       -1.8841052502        3.0948873085
 H          0.1990509916       -2.6033632809        2.7282902781
 H         -1.6427156083       -2.8745882309        1.3711090579
 C         -1.3290092979       -3.7979218298       -0.5279061426
 C         -1.0605415474       -5.1683475900        0.0154003768
 C         -2.4594557076       -4.7622044403       -0.3364549231
 H         -2.9206149274       -5.1927806000       -1.2124794133
 H         -3.1521387077       -4.5655774309        0.4688062770
 H         -0.5578421672       -5.8827335295       -0.6180660335
 H         -0.8057038275       -5.2501720604        1.0610212168
 H         -1.0240626279       -3.5885787792       -1.5447798025
