  62
        -98.94333653
 C         -1.9468220503       -0.8533617691        0.0490362307
 C         -2.2215786600        0.1334115513        1.0238970504
 C         -2.6000007597        1.4562400312        0.5119794799
 C         -2.6199548098        1.6648233407       -0.8172888401
 C         -3.0386892495        2.9461331606       -1.4773879106
 C         -4.5430409195        2.9466143508       -1.7848186705
 C         -5.4161130096        2.5344963114       -0.5995983603
 H         -6.4567268796        2.5977271515       -0.9246753703
 H         -5.2169169698        1.4879886814       -0.3578499300
 C         -5.2210159293        3.3902528418        0.6597094694
 H         -4.7314498891        4.3288225516        0.3977595090
 H         -6.2018255992        3.6384764822        1.0705124693
 C         -4.4322939494        2.7039675520        1.7764964296
 H         -4.5358280492        3.3031397224        2.6850397694
 H         -4.8650258196        1.7214276122        1.9810649699
 C         -2.9309199195        2.5222538016        1.5183459796
 H         -2.4661305895        2.2019672718        2.4558890697
 H         -2.4865655893        3.4766188814        1.2274129792
 H         -4.8263614793        3.9466552107       -2.1177864208
 H         -4.7276228597        2.2489903005       -2.6048322302
 H         -2.4836422195        3.0469735001       -2.4115363106
 H         -2.7877183493        3.7815536507       -0.8266104709
 O         -2.3085132000        0.7037533103       -1.7239386598
 C         -1.9660526203       -0.5770999996       -1.3176089494
 O         -1.7106478705       -1.3614566700       -2.2514897291
 O         -2.1581452700       -0.0848129483        2.2659805905
 C         -1.5572206406       -2.2471842191        0.4999439612
 C         -0.1851081307       -2.6172900495       -0.0094013588
 C          0.1492194690       -3.9079713798       -0.4005489283
 C          1.4315016390       -4.1985460802       -0.8331487183
 C          2.4040411992       -3.2178353704       -0.8799550087
 C          2.0788648795       -1.9211784802       -0.4940606691
 C          0.7970311595       -1.6361757098       -0.0543031891
 H          0.5590753598       -0.6272894096        0.2523539305
 N          3.0328630097       -0.8940447604       -0.5758121695
 S          2.8897474700        0.4690452899        0.4013057100
 O          2.6860402500        0.0798057704        1.7795516902
 O          1.9064494802        1.3563411299       -0.1697774202
 C          4.5203677102        1.1625438995        0.2008335697
 C          5.5024649102        0.8547375896        1.1236839298
 C          6.7769773303        1.3688465093        0.9437903095
 C          7.0473570104        2.1757027188       -0.1512562808
 C          6.0512709004        2.4774656887       -1.0680994808
 C          4.7746298303        1.9669035291       -0.8937957506
 H          3.9660329703        2.1794914790       -1.5738977206
 H          6.2637302405        3.1076001284       -1.9166096211
 H          8.0397924005        2.5745210586       -0.2895728710
 H          7.5521306802        1.1388641893        1.6568321596
 H          5.2424271601        0.2323304700        1.9647445900
 H          3.9836493796       -1.2319658707       -0.6284516494
 H          3.4021226091       -3.4452951808       -1.2214458086
 H          1.6771435387       -5.2051505503       -1.1357524879
 H         -0.5957703111       -4.6860640796       -0.3686978480
 H         -1.5052413705       -2.1949528587        1.5991054812
 C         -2.6299745708       -3.2443738190        0.1093133816
 C         -2.9270058010       -4.4262525086        0.9818111420
 C         -3.8977974808       -3.2876472784        0.9071034317
 H         -4.8314358408       -3.4347273284        0.3853325117
 H         -3.9705035706       -2.6191979281        1.7529435314
 H         -3.1982715512       -5.3591275187        0.5110220623
 H         -2.3489298110       -4.5373678684        1.8868376320
 H         -2.7097301009       -3.3638713793       -0.9655070484
