  62
        -98.92535259
 C         -2.1964861799       -0.7776614575       -0.1609359175
 C         -3.5491819058       -1.1597890444        0.0048715603
 C         -4.5099032347       -0.1083440679        0.3870716412
 C         -4.0503297880        1.1416140226        0.5808878515
 C         -4.8347739469        2.3770660350        0.9347668631
 C         -5.6086644884        2.9495483598       -0.2641165577
 C         -6.3309246946        1.9111216121       -1.1187589083
 H         -5.6052926099        1.1825248003       -1.4850562958
 H         -6.7403773178        2.4268767395       -1.9914212811
 C         -7.4795843094        1.1817540333       -0.4260403621
 H         -7.9520206941        0.5386778588       -1.1729414686
 H         -8.2226044523        1.9129349539       -0.0999513579
 C         -7.0950114550        0.3128825666        0.7731376247
 H         -7.9569471989       -0.3192020180        1.0060903752
 H         -6.9110992726        0.9209146118        1.6546954383
 C         -5.9203407597       -0.6289971054        0.5278421274
 H         -6.1151352941       -1.2172623959       -0.3760070901
 H         -5.8837290503       -1.3606988092        1.3438964500
 H         -4.8948324155        3.4704811663       -0.9070228344
 H         -6.3263880223        3.6831033031        0.1069134586
 H         -4.1099834082        3.1226744355        1.2691149170
 H         -5.5031530218        2.1689940072        1.7649823206
 O         -2.7342082508        1.4627838542        0.4282519550
 C         -1.7761034785        0.5355076555        0.0483010335
 O         -0.6295147281        1.0090332378       -0.0523179940
 O         -3.9498374044       -2.3438722167       -0.1651172675
 C         -1.2110405662       -1.8625949951       -0.5783307540
 C         -0.0295933733       -1.8682027833        0.3569951077
 C         -0.2137864781       -2.5082116893        1.5834615254
 C          0.7826296396       -2.5282493480        2.5386061198
 C          1.9966602638       -1.9125027990        2.2927707668
 C          2.1990414393       -1.2766182660        1.0744042246
 C          1.1913119946       -1.2558820561        0.1182368610
 H          1.3778515844       -0.7116267872       -0.7871202002
 N          3.4524359564       -0.7009572385        0.7859222519
 S          3.6011933052        0.7959030837        0.0193943688
 O          3.1283143808        1.8542269336        0.8856910074
 O          3.0409018690        0.7256991610       -1.3039110425
 C          5.3808815528        0.8676175024       -0.0979459905
 C          6.0023119798        0.1045672969       -1.0681189860
 C          7.3847498148        0.1292560277       -1.1578668400
 C          8.1200309851        0.9125408776       -0.2804061343
 C          7.4829381562        1.6748749252        0.6866806410
 C          6.1000309436        1.6529190889        0.7821744113
 H          5.5612656759        2.2352202168        1.5124409132
 H          8.0564817331        2.2855091215        1.3653126393
 H          9.1960034318        0.9309391587       -0.3528953584
 H          7.8830986745       -0.4602505978       -1.9104532507
 H          5.3891998927       -0.4810422785       -1.7329779850
 H          4.0533404002       -0.6971406932        1.6007696629
 H          2.7792170411       -1.9229263248        3.0367559770
 H          0.6134139131       -3.0232737540        3.4830629675
 H         -1.1649944348       -2.9823071705        1.7846475424
 H         -1.7596651726       -2.7998405401       -0.3882158894
 C         -1.0091522552       -1.8308876807       -2.0876465289
 C         -0.2318531167       -0.8057468503       -2.8550432878
 C          0.2497770504       -2.2256042500       -2.7972400121
 H          0.1613321341       -2.8282421761       -3.6891509791
 H          1.1228362023       -2.4443121450       -2.2035156487
 H         -0.6595097872       -0.4504234584       -3.7826959981
 H          0.2983415155       -0.0356800185       -2.3170200881
 H         -1.9337559053       -2.1441439674       -2.5686333477
