  62
        -98.94315617
 C         -1.8376669676       -0.0953564563        0.3130940805
 C         -2.7561781197       -0.6725222057       -0.5981283065
 C         -4.0212114184        0.0548188637       -0.7739740082
 C         -4.2293088402        1.2149506356       -0.1273585536
 C         -5.4551265062        2.0812565112       -0.2293888488
 C         -6.6005096104        1.6492357927        0.6965282851
 C         -7.3286819421        0.3713303084        0.2777298800
 H         -7.6408986124        0.4575797246       -0.7634981772
 H         -8.2337504379        0.3058254311        0.8849774020
 C         -6.5126310837       -0.9148689679        0.4680914405
 H         -7.1376436283       -1.6751044659        0.9420599450
 H         -5.6779992943       -0.7196887078        1.1454368316
 C         -5.9686672241       -1.5185545987       -0.8267863071
 H         -6.7999651185       -1.8380996057       -1.4590406818
 H         -5.3801979392       -2.4030505891       -0.5706759060
 C         -5.0734149682       -0.5727029112       -1.6380812040
 H         -5.6770001074        0.1948456769       -2.1216946392
 H         -4.5655103217       -1.1573365103       -2.4087189063
 H         -7.3266258455        2.4651908428        0.7191563210
 H         -6.2048469569        1.5291422004        1.7078395451
 H         -5.8066369719        2.1004536156       -1.2613477541
 H         -5.1464410122        3.0905400958        0.0517933218
 O         -3.3060982200        1.7576480684        0.7110585230
 C         -2.1105793600        1.1090869130        0.9684507668
 O         -1.3814082085        1.6975714382        1.7934568678
 O         -2.5567178711       -1.7369035475       -1.2382142991
 C         -0.4921025322       -0.7292086775        0.6361271532
 C          0.4879918697       -0.4431006500       -0.4766367329
 C          0.4535578141       -1.1274683551       -1.6875399379
 C          1.3484360987       -0.8132170252       -2.6935756561
 C          2.3047181356        0.1698938179       -2.5084189022
 C          2.3455816798        0.8622399637       -1.3045084103
 C          1.4363703685        0.5556794295       -0.3014132938
 H          1.4643012416        1.1180862099        0.6204739814
 N          3.3052476640        1.8686108193       -1.0850468692
 S          4.2502869760        1.7810150691        0.2942917286
 O          3.4617034076        2.0754118601        1.4625085093
 O          5.3645746911        2.6648937447        0.0317574171
 C          4.8076097127        0.0872858831        0.3259163451
 C          4.0746283694       -0.8568621087        1.0161390034
 C          4.4673548662       -2.1846283829        0.9552902404
 C          5.5809403864       -2.5424234571        0.2111652648
 C          6.3116217156       -1.5810475175       -0.4707178276
 C          5.9192454382       -0.2534666788       -0.4200165219
 H          6.4611133193        0.5270008188       -0.9294384599
 H          7.1807715528       -1.8621828505       -1.0432386381
 H          5.8815679938       -3.5771619902        0.1657685762
 H          3.8993979270       -2.9327697498        1.4850413094
 H          3.2189255441       -0.5367033693        1.5882217816
 H          3.8876350296        2.0577427524       -1.8887940911
 H          3.0068880687        0.4096695701       -3.2926152679
 H          1.3059531838       -1.3455199561       -3.6315794304
 H         -0.3009368086       -1.8812281537       -1.8454813855
 H         -0.1326013040       -0.2088803603        1.5346420544
 C         -0.5998310702       -2.2077461613        0.9503540707
 C          0.4780837328       -2.8590316586        1.7608990738
 C         -0.8769833655       -2.6322583832        2.3597879033
 H         -1.5208824297       -3.4830837716        2.5247815796
 H         -0.9829585562       -1.8556356657        3.1041500927
 H          0.7682858579       -3.8687638303        1.5152603980
 H          1.2889828578       -2.2345710446        2.1046899185
 H         -1.0615657145       -2.7873347673        0.1628620650
