  62
        -98.93355503
 C         -1.9966160075        0.1295250494        0.5793445193
 C         -2.8193464286       -0.5301537681       -0.3655082166
 C         -4.1451979162        0.0738808132       -0.6068879949
 C         -4.4891743085        1.2064092157        0.0273251466
 C         -5.7549330819        2.0156268884       -0.1085670244
 C         -7.0839833506        1.2509101394       -0.1744460655
 C         -7.1282864934       -0.0462903088        0.6461932336
 H         -6.2624777832       -0.0995973518        1.3085148635
 H         -8.0198068332       -0.0369571395        1.2761174582
 C         -7.1826607363       -1.3029735867       -0.2259166264
 H         -7.8843879429       -1.1302785834       -1.0448699245
 H         -7.5760673864       -2.1285368362        0.3721979407
 C         -5.8432114651       -1.7593507402       -0.8027333368
 H         -6.0374361068       -2.5872115977       -1.4888291288
 H         -5.2094633968       -2.1495539565       -0.0018232799
 C         -5.0411436556       -0.6798234074       -1.5477168698
 H         -4.3784928792       -1.1836143004       -2.2565122859
 H         -5.6973486448       -0.0123387978       -2.1007003078
 H         -7.8576031876        1.9335423089        0.1814936005
 H         -7.3223098248        1.0224932294       -1.2123468282
 H         -5.7590032645        2.6819277377        0.7575544836
 H         -5.6606641551        2.6461551016       -0.9976520251
 O         -3.6533442473        1.8241030461        0.9108130266
 C         -2.4078418109        1.3056041361        1.2100182379
 O         -1.7647573678        1.9695045092        2.0492909652
 O         -2.4837651674       -1.5639771291       -0.9956237046
 C         -0.6103032175       -0.3587782602        0.9661655727
 C          0.4304603469        0.2236084872        0.0455340358
 C          0.3137946834        0.1106394422       -1.3363430781
 C          1.2804771939        0.6449671372       -2.1685026381
 C          2.3839564766        1.2940709708       -1.6423639890
 C          2.5125396891        1.4061838351       -0.2648501584
 C          1.5385548048        0.8728711154        0.5692548508
 H          1.6357814255        0.9788443348        1.6414144526
 N          3.6568177847        2.0325919946        0.2709266322
 S          5.1204498962        1.3176940045       -0.1373523136
 O          6.0552352814        1.7411901662        0.8800484456
 O          5.4555735596        1.6628524747       -1.4949646664
 C          4.7885956816       -0.4294370603       -0.0069999689
 C          4.7726333834       -0.9984625250        1.2511972882
 C          4.4142426324       -2.3303815192        1.3803826323
 C          4.0650409793       -3.0629707513        0.2560438323
 C          4.0889731995       -2.4778468167       -1.0000360166
 C          4.4538276097       -1.1479812060       -1.1369674925
 H          4.4880642677       -0.6584127254       -2.0960643997
 H          3.8175075617       -3.0505641821       -1.8721103432
 H          3.7693831663       -4.0945240068        0.3606067368
 H          4.3985542701       -2.7903385137        2.3554739677
 H          5.0510363953       -0.3954526219        2.1009320100
 H          3.6062165625        2.1674136497        1.2708884120
 H          3.1506854237        1.7108946489       -2.2754285409
 H          1.1750812661        0.5541301441       -3.2389889633
 H         -0.5397915461       -0.4060422336       -1.7476920423
 H         -0.4329968238        0.0588046465        1.9700092419
 C         -0.5122887249       -1.8747035334        1.0824619041
 C          0.3324165653       -2.7235520090        0.1847541354
 C          0.7503840133       -2.4950025044        1.6037950808
 H          0.6748478525       -3.3088212759        2.3085391950
 H          1.5905224891       -1.8377790594        1.7728396489
 H         -0.0580303595       -3.6896433162       -0.0952430858
 H          0.8994851558       -2.2397661363       -0.5946341315
 H         -1.4444305225       -2.3150452452        1.4199107774
