  62
        -98.93339388
 C         -2.1196142212        1.2558723391        0.1132833374
 C         -2.4361046686        0.0389440638        0.7659951357
 C         -3.8523078531       -0.3626218344        0.7113853807
 C         -4.7470964408        0.4327280754        0.0993135877
 C         -6.2053043530        0.1192567938       -0.0668014329
 C         -6.4672061627       -0.6221530993       -1.3852668261
 C         -5.5354264675       -1.8109202517       -1.6210981819
 H         -5.8322547645       -2.2745606808       -2.5643472010
 H         -4.5144474721       -1.4443461052       -1.7501658756
 C         -5.5562774651       -2.8647510545       -0.5051550687
 H         -5.6027618834       -3.8562366566       -0.9605340795
 H         -6.4547183965       -2.7448215286        0.1013407036
 C         -4.3260467431       -2.8500972930        0.4043079692
 H         -3.4184865648       -2.8763250732       -0.2044265214
 H         -4.3399297592       -3.7606562745        1.0093745101
 C         -4.2232244444       -1.6620043718        1.3691272872
 H         -5.1553170712       -1.5599045392        1.9286803752
 H         -3.4185856722       -1.8785126434        2.0780811876
 H         -7.5038768584       -0.9636550182       -1.3889492711
 H         -6.3382996581        0.0825219393       -2.2099605545
 H         -6.5398136950       -0.4843391136        0.7746072063
 H         -6.7603854518        1.0588119465       -0.0718321320
 O         -4.4090384634        1.6088472392       -0.4887973024
 C         -3.0943390218        2.0386111073       -0.5096834760
 O         -2.9184952650        3.1211416546       -1.1055161933
 H          1.1055066107        0.0254811041        1.3981179535
 C          1.0546491600       -0.0780862470        0.3305423239
 C          0.2270009859        0.7180629391       -0.4449460267
 C          0.1865740976        0.4735115230       -1.8193815778
 C          0.9424092691       -0.5260590005       -2.3980770414
 C          1.7889400288       -1.2964850835       -1.6197953403
 C          1.8400361618       -1.0647918952       -0.2529324799
 N          2.7105479551       -1.8062254932        0.5771694909
 S          3.9807934097       -0.9494540446        1.2504455851
 O          4.8249200328       -1.9366547947        1.8847245420
 O          3.4690825460        0.1017631750        2.0886364345
 C          4.8226011730       -0.2485103392       -0.1590371398
 C          5.9009236046       -0.9208908073       -0.7000340536
 C          6.5036679828       -0.4154259800       -1.8407187233
 C          6.0114633720        0.7416295058       -2.4254219750
 C          4.9255123189        1.4032105253       -1.8726295576
 C          4.3222297500        0.9061239130       -0.7281379863
 H          3.4781317643        1.3967512106       -0.2704082243
 H          4.5416569276        2.3021744040       -2.3275654889
 H          6.4769238815        1.1320223295       -3.3166391354
 H          7.3502298938       -0.9258130289       -2.2710671895
 H          6.2503335146       -1.8156125122       -0.2103096660
 H          3.0695541150       -2.6441443377        0.1406227598
 H          2.3934365835       -2.0734651222       -2.0634428217
 H          0.8822531581       -0.6992705356       -3.4617007328
 H         -0.4691170859        1.0780300046       -2.4318598798
 C         -0.6937929078        1.7982245564        0.0622158979
 H         -0.7229394506        2.5702482525       -0.7234042984
 C         -0.3902825481        2.5582390409        1.3469865301
 C         -0.2086370301        1.9466285487        2.7021326417
 C          0.9366226373        2.6520474407        2.0378570570
 H          1.2287148516        3.6162483224        2.4284008707
 H          1.7674312027        2.0592993690        1.6901652781
 H         -0.1937177559        0.8712202544        2.7795539012
 H         -0.6941193874        2.4267443299        3.5404837209
 H         -0.9724499371        3.4781540416        1.3457833113
 O         -1.5997602214       -0.6852849314        1.3621783485
