  62
        -98.93919561
 C         -1.4429505509       -1.2836886269       -0.0252676379
 C         -2.5248214982       -1.0414985099        0.8587065330
 C         -3.3268250153        0.1621354997        0.5959455946
 C         -2.9764560649        0.9717452527       -0.4196251273
 C         -3.7258510513        2.1983209179       -0.8563810467
 C         -4.9738206444        1.7910296913       -1.6657558417
 C         -6.3022788844        2.1462052689       -0.9977101140
 H         -6.4784549791        3.2185668862       -1.1054811256
 H         -7.0922199095        1.6267692155       -1.5444831343
 C         -6.4152683748        1.8002577822        0.4902174020
 H         -7.4741860912        1.8603205288        0.7505924499
 H         -5.9062924718        2.5610213068        1.0838796576
 C         -5.8846835522        0.4204874832        0.9008900415
 H         -5.8969454581       -0.2645909241        0.0527885001
 H         -6.5607584614        0.0069766963        1.6520384059
 C         -4.4768160586        0.4352908731        1.5252973304
 H         -4.3149657897        1.3876076360        2.0376286051
 H         -4.4210225613       -0.3555751257        2.2790235880
 H         -4.9455328199        2.2710359576       -2.6452272135
 H         -4.9312934438        0.7143000761       -1.8432103938
 H         -4.0093460559        2.7862294716        0.0136554729
 H         -3.0520437267        2.7912305168       -1.4752421566
 O         -1.9183596877        0.7189217758       -1.2314569498
 C         -1.1306431091       -0.4123809822       -1.0679767189
 O         -0.2127143432       -0.5090625235       -1.9044729597
 H          1.6916368030       -2.0169756098       -1.2300246691
 C          1.8095458085       -1.7687348047       -0.1876319211
 C          0.7702399508       -1.9982796747        0.7001889000
 C          0.9438670845       -1.6444084079        2.0355346433
 C          2.1276795708       -1.0766209503        2.4685738755
 C          3.1530958472       -0.8223363294        1.5738982454
 C          2.9813059065       -1.1587502473        0.2380392048
 N          3.9886813120       -0.8380670953       -0.6909914713
 S          4.5921446164        0.7221390604       -0.6088807659
 O          4.9600181461        1.0676334438       -1.9647108017
 O          5.6674632810        0.7638984193        0.3527265111
 C          3.2523788791        1.7575695390       -0.0361195073
 C          2.0325533263        1.7033925184       -0.6805991128
 C          1.0000438534        2.5073433947       -0.2249532216
 C          1.2010274940        3.3511553408        0.8559711243
 C          2.4344343377        3.3998007670        1.4869977889
 C          3.4695345358        2.5949353958        1.0399752340
 H          4.4409359902        2.5932807725        1.5074034400
 H          2.5900736134        4.0573135669        2.3270850157
 H          0.3908356538        3.9709929473        1.2067303474
 H          0.0408415392        2.4542517287       -0.7160910266
 H          1.8744793508        1.0339740426       -1.5117047523
 H          3.7394764227       -1.0697198015       -1.6421904650
 H          4.0760445267       -0.3607675781        1.8863246952
 H          2.2505470658       -0.8158429317        3.5085371175
 H          0.1294004764       -1.8059149296        2.7274970181
 C         -0.5717528430       -2.5032911179        0.2335606182
 H         -1.0512128564       -3.0336050908        1.0665715712
 C         -0.5019556167       -3.4309546814       -0.9606525616
 C          0.0460396741       -4.8141559054       -0.7796006090
 C         -1.4186808366       -4.6141919098       -1.0238935208
 H         -1.8258750157       -4.8990820686       -1.9825464531
 H         -2.0999613279       -4.7638980127       -0.1992237649
 H          0.3609896737       -5.0974569293        0.2132996500
 H          0.6464599637       -5.2399047227       -1.5690071526
 H         -0.2932106457       -2.9216495464       -1.8934934391
 O         -2.8057566307       -1.7999732663        1.8242010115
