  62
        -98.94447762
 C         -1.8305908292       -0.0251216082       -0.4395336235
 C         -2.9818471879        0.3667579477       -1.1640834262
 C         -4.2623964767       -0.1249832662       -0.6443132281
 C         -4.2801577272       -0.9215018600        0.4400181964
 C         -5.5042136738       -1.5266905352        1.0724238327
 C         -6.2273109673       -0.5929584610        2.0527649451
 C         -6.9942304878        0.5613343982        1.4062430802
 H         -7.6559327192        0.1684254012        0.6336914646
 H         -7.6242562359        1.0010713185        2.1820028146
 C         -6.1018588020        1.6605753035        0.8131279182
 H         -5.0922795071        1.5693160838        1.2204726315
 H         -6.4809987424        2.6395047847        1.1149588562
 C         -6.0215244208        1.6568027837       -0.7134447358
 H         -7.0053722890        1.8785882736       -1.1327067780
 H         -5.3368244262        2.4507399045       -1.0220326845
 C         -5.5199925775        0.3379000405       -1.3161084890
 H         -6.2935458418       -0.4263808751       -1.2454711761
 H         -5.2898316169        0.5081621787       -2.3706618139
 H         -5.4952955737       -0.1945842584        2.7591983970
 H         -6.9371160190       -1.2012757496        2.6181285754
 H         -6.1980671144       -1.8478770595        0.2950059720
 H         -5.1654500456       -2.4075806177        1.6221487383
 O         -3.1480320412       -1.2965642354        1.0940620066
 C         -1.8998068467       -0.8447641553        0.6867000064
 O         -0.9550525604       -1.2437558017        1.3941115768
 H          2.1229209721        0.0674813024       -0.0414209325
 C          1.7479051341       -0.7369552471       -0.6511542681
 C          0.4561983221       -0.6930383944       -1.1524170218
 C          0.0085019600       -1.7533616110       -1.9369757137
 C          0.8226362614       -2.8399914560       -2.1869605030
 C          2.1023200135       -2.8922438412       -1.6627742826
 C          2.5659348073       -1.8332096085       -0.8920410089
 N          3.8766662260       -1.8406336960       -0.4005945510
 S          4.3265373467       -1.0406792550        0.9933149646
 O          5.6244292190       -1.6007052789        1.3103222285
 O          3.3316557511       -1.1292708176        2.0353835585
 C          4.5469811177        0.6523104501        0.4864279607
 C          4.2037348393        1.6609357486        1.3645526016
 C          4.4219694815        2.9787153050        0.9929332784
 C          4.9760912364        3.2634015949       -0.2455538074
 C          5.3155821410        2.2387080714       -1.1157054201
 C          5.1051684379        0.9193260905       -0.7480791622
 H          5.3584805729        0.0994664197       -1.3988921431
 H          5.7444582711        2.4640493717       -2.0787425036
 H          5.1416305273        4.2895473002       -0.5333165711
 H          4.1586500236        3.7760715957        1.6700183629
 H          3.7623217429        1.3944322446        2.3122138852
 H          4.3839126457       -2.7035230017       -0.5273425977
 H          2.7367391173       -3.7455436982       -1.8480324612
 H          0.4578778168       -3.6580082404       -2.7899499663
 H         -0.9947331008       -1.7169818255       -2.3395701523
 C         -0.4722608181        0.4684527627       -0.9026763703
 H         -0.6602405110        0.9698633854       -1.8642989877
 C          0.0792067774        1.4871223961        0.0726411987
 C          0.9779556579        2.5832159200       -0.4145247170
 C         -0.4256491330        2.8963836206        0.0061806718
 H         -0.5826974682        3.4314671904        0.9307171336
 H         -1.1530425786        3.1242900501       -0.7592287771
 H          1.7899612719        2.9043945434        0.2199040424
 H          1.2076093160        2.6062391823       -1.4688732711
 H          0.2651931631        1.0657137239        1.0553425350
 O         -2.9393412724        1.0844028572       -2.1989441062
