  62
        -98.94674660
 C         -1.6211683296       -1.4581226009       -0.0230844090
 C         -2.4668547097       -0.8590790210        0.9397467509
 C         -3.1313674203        0.3803026286        0.5231932906
 C         -2.9148474306        0.8719755884       -0.7109197595
 C         -3.5708211912        2.0912434980       -1.3010337597
 C         -2.8885429317        3.4162811584       -0.9366697401
 C         -3.0712464817        3.8684005486        0.5121578998
 H         -2.7250177322        4.9018890088        0.5733631395
 H         -4.1320706517        3.8669275182        0.7645325699
 C         -2.2956595613        3.0260396892        1.5346285299
 H         -1.5281025511        2.4434503794        1.0185956700
 H         -1.7786415315        3.6854067196        2.2354995597
 C         -3.1681972508        2.0805844690        2.3609300402
 H         -2.5195627405        1.5049258695        3.0267714003
 H         -3.8525142010        2.6626543589        2.9823374702
 C         -3.9904071605        1.0896648285        1.5259815305
 H         -4.8110571907        1.6070007080        1.0294822005
 H         -4.4078644101        0.3370060985        2.1995091608
 H         -1.8233829717        3.3256640387       -1.1528833702
 H         -3.3031054521        4.1867785280       -1.5905542103
 H         -4.6176734711        2.1226517776       -0.9968845696
 H         -3.5290822712        1.9701407877       -2.3855121397
 O         -2.0753381304        0.2780909885       -1.5992686894
 C         -1.3952837199       -0.8879576411       -1.2764900892
 O         -0.6430679298       -1.3088171310       -2.1732557192
 O         -2.6591683194       -1.3392509708        2.0902590810
 C         -0.9051534590       -2.7492483805        0.3294791912
 C          0.5876777709       -2.5380389499        0.2847802810
 C          1.4625610812       -3.3761590997       -0.3925077588
 C          2.8217730411       -3.1097787791       -0.4051526690
 C          3.3380394007       -2.0129329088        0.2591774707
 C          2.4709221304       -1.1694967690        0.9438823905
 C          1.1115534205       -1.4384793995        0.9555942807
 H          0.4381947803       -0.7802617297        1.4913885706
 N          2.9858429200       -0.0458418286        1.6257834402
 S          3.7436991994        1.1373732915        0.7160274899
 O          4.8763249396        0.5544613218        0.0441664899
 O          4.0289162891        2.2091447819        1.6421626696
 C          2.5351317491        1.6806468207       -0.4780090902
 C          1.9026390386        2.8921911805       -0.2818610304
 C          0.9505836883        3.3072353299       -1.1984559004
 C          0.6341585186        2.4971395295       -2.2789925902
 C          1.2690364291        1.2776543297       -2.4555829000
 C          2.2338155593        0.8647265903       -1.5506545999
 H          2.7483020297       -0.0749506995       -1.6685708898
 H          1.0035991293        0.6347955694       -3.2791271898
 H         -0.1125088516        2.8129291790       -2.9911666402
 H          0.4604989880        4.2590887597       -1.0657130506
 H          2.1768264884        3.4878591608        0.5740183994
 H          2.3077308299        0.3932304813        2.2330030702
 H          4.3909734006       -1.7834987483        0.2422782305
 H          3.4893937813       -3.7672599090       -0.9411547389
 H          1.0817530415       -4.2358560600       -0.9184388886
 H         -1.1874519588       -2.9645475504        1.3710693213
 C         -1.3882169886       -3.8834380209       -0.5490980485
 C         -1.3421074280       -5.2958577708       -0.0499746681
 C         -2.6574945783       -4.5910684514       -0.1844679482
 H         -3.3269118182       -4.8910822718       -0.9766492181
 H         -3.1630617183       -4.2717927714        0.7153426618
 H         -1.1106210177       -6.0839062909       -0.7505838380
 H         -0.9561032578       -5.4626307404        0.9443073119
 H         -1.2010785488       -3.7042350811       -1.6017557885
