  62
        -98.94392316
 C         -1.8325172171       -1.1289604986        0.1955259021
 C         -2.1881813793       -0.0977507886       -0.7066069432
 C         -3.6231349289        0.0207416616       -1.0061264858
 C         -4.4884769104       -0.8452373533       -0.4476469420
 C         -5.9784896210       -0.8018012897       -0.6219772427
 C         -6.6399288410        0.0456138490        0.4739968883
 C         -5.9880273413        1.4137571283        0.6747598151
 H         -6.5551920561        1.9337323695        1.4498331356
 H         -4.9742913552        1.2741945425        1.0572723346
 C         -5.9343749016        2.2833077745       -0.5891110743
 H         -6.6462235568        1.9102495223       -1.3263330598
 H         -6.2395663752        3.2990034798       -0.3287265923
 C         -4.5491201563        2.3861751424       -1.2305389554
 H         -4.5774152155        3.1864585616       -1.9750326978
 H         -3.8130436812        2.6708336460       -0.4740228657
 C         -4.0452608358        1.1216184157       -1.9377660046
 H         -4.8016660798        0.7660175379       -2.6404996013
 H         -3.1495386859        1.3933620919       -2.5044468441
 H         -7.6934768081        0.1764338913        0.2206793022
 H         -6.5823587793       -0.5024514777        1.4172333879
 H         -6.2126071028       -0.3934740403       -1.6030722839
 H         -6.3618979820       -1.8216663809       -0.5613817496
 O         -4.1038962838       -1.8407598324        0.3913467702
 C         -2.7737844298       -1.9991264677        0.7449933900
 O         -2.5602111639       -2.9326829099        1.5445011329
 O         -1.3547450008        0.6863214693       -1.2319554085
 C         -0.3786134649       -1.3239653048        0.5857577254
 C          0.1975345548       -0.0364663655        1.1217975008
 C         -0.5286307724        0.6859184473        2.0654380651
 C         -0.0413829957        1.8737170088        2.5736542838
 C          1.1835987810        2.3641894851        2.1571419710
 C          1.9270964643        1.6414189132        1.2319776599
 C          1.4376855709        0.4429149872        0.7291229287
 H          2.0234070886       -0.0946156860        0.0027283410
 N          3.1942615164        2.0902923820        0.8439575063
 S          3.8988975460        1.6931929660       -0.6143669322
 O          5.0036483362        2.6227838030       -0.7304491590
 O          2.9592222254        1.6948803323       -1.7100456215
 C          4.5548459240        0.0563819380       -0.3631639576
 C          4.5815227120       -0.8191162390       -1.4304966431
 C          5.1375431750       -2.0768806286       -1.2549133325
 C          5.6538545852       -2.4362670931       -0.0196956072
 C          5.6201397035       -1.5452113785        1.0419882459
 C          5.0707519337       -0.2845170173        0.8714481884
 H          5.0292741744        0.4310079642        1.6753600365
 H          6.0210573492       -1.8286749109        2.0017847295
 H          6.0829095676       -3.4165240924        0.1151039045
 H          5.1648458968       -2.7703215000       -2.0806200139
 H          4.1568680097       -0.5027777482       -2.3703994322
 H          3.4475852996        3.0145865259        1.1584611093
 H          1.5608925784        3.2983663352        2.5441599638
 H         -0.6220052247        2.4280818470        3.2958344846
 H         -1.4901597480        0.3068805202        2.3853213647
 H         -0.3800021618       -2.0644125060        1.3995189169
 C          0.4009308469       -1.8915822036       -0.5825774784
 C          1.5674888874       -2.8002347850       -0.3397052508
 C          0.2856752666       -3.3548917447       -0.8825803180
 H          0.2524903246       -3.6680809849       -1.9152804363
 H         -0.3390346658       -3.9442343346       -0.2270677143
 H          2.4190853708       -2.7330998467       -0.9996103656
 H          1.8216923039       -3.0229277686        0.6854198741
 H          0.4473654497       -1.2082678161       -1.4239641772
