  62
        -98.94359220
 C         -2.1143343804       -0.6391488400        0.5314879008
 C         -2.5481613304       -0.2322049008       -0.7535016894
 C         -3.5399111204        0.8532658091       -0.7775499801
 C         -3.9165688805        1.4291463598        0.3785557496
 C         -4.9585734105        2.5018053499        0.5035525489
 C         -6.3489657105        1.8960563799        0.7424492192
 C         -6.7102901405        0.7751489894       -0.2323046801
 H         -6.0462800804       -0.0750190305       -0.0597584496
 H         -7.7226940804        0.4465610595        0.0122737100
 C         -6.6461826004        1.1758234985       -1.7128239004
 H         -7.5355181204        0.7923481782       -2.2172966102
 H         -6.6659251905        2.2624498084       -1.8034276310
 C         -5.4344557204        0.6259992181       -2.4679221800
 H         -5.6007554503        0.7826934374       -3.5369088301
 H         -5.3586921403       -0.4516749218       -2.3029003494
 C         -4.0833960104        1.2626537683       -2.1174542403
 H         -3.3512945504        0.9186151579       -2.8539230301
 H         -4.1583812004        2.3495367983       -2.1891883610
 H         -7.0895366205        2.6948418399        0.6728924487
 H         -6.3800596105        1.4910825605        1.7566947195
 H         -4.9636799605        3.1044124593       -0.4025739215
 H         -4.6984837406        3.1381381804        1.3512574985
 O         -3.4170320905        1.0618392705        1.5876714798
 C         -2.5215473605        0.0100997306        1.6960069505
 O         -2.1581496805       -0.2386486687        2.8648545006
 O         -2.1345582803       -0.7492626714       -1.8229579991
 C         -1.1422408304       -1.7963739799        0.6705525016
 C          0.1619900196       -1.4777324903       -0.0198448186
 C          0.8257541997       -2.3699131508       -0.8514170380
 C          2.0345336697       -2.0240557011       -1.4311575482
 C          2.6119217696       -0.7917015309       -1.1868827489
 C          1.9626922896        0.1029337696       -0.3463073895
 C          0.7508837296       -0.2431196401        0.2272054407
 H          0.2507233695        0.4567010003        0.8875087903
 N          2.5709385395        1.3537919498       -0.0725322502
 S          3.8485065095        1.2543671105        1.0260251199
 O          3.5820973795        0.2678379111        2.0501559105
 O          4.0686898994        2.6081886507        1.4857724291
 C          5.2222511595        0.7306030299        0.0250357003
 C          5.7461612995        1.6230149994       -0.8899589502
 C          6.8083484996        1.2194226190       -1.6832841800
 C          7.3242120696       -0.0612160809       -1.5486833892
 C          6.7878447296       -0.9439070004       -0.6234415787
 C          5.7255924696       -0.5468440300        0.1735707510
 H          5.2730980396       -1.1977838296        0.9041059614
 H          7.1901806196       -1.9387766503       -0.5204438781
 H          8.1501163496       -0.3731347513       -2.1683123490
 H          7.2294140996        1.9029063185       -2.4029054004
 H          5.3173421595        2.6090469593       -0.9562066008
 H          1.9105491895        2.0341239900        0.2793249994
 H          3.5467508396       -0.5128070811       -1.6446489490
 H          2.5328321697       -2.7245060814       -2.0834459278
 H          0.3936819797       -3.3369775509       -1.0492273575
 H         -0.9318570804       -1.8867890793        1.7471933816
 C         -1.7873279703       -3.0796898202        0.1897620123
 C         -1.3865727803       -4.3949253299        0.7848265731
 C         -2.7245004303       -3.8026862897        1.1081172427
 H         -3.6082904903       -4.2597422400        0.6890024629
 H         -2.8758822004       -3.3826203891        2.0923657424
 H         -1.3546933703       -5.2632394002        0.1442944636
 H         -0.6301431603       -4.3850828694        1.5551510631
 H         -2.0439247103       -3.0472266909       -0.8627028677
