  62
        -98.93500388
 C         -1.5095359392       -1.6006832908       -0.8875308491
 C         -0.8505608094       -2.4959503000       -0.0095167682
 C          0.6020346707       -2.6454831101       -0.2256951576
 C          1.2096385110       -1.9869957008       -1.2259662379
 C          2.6816058511       -1.9743902909       -1.5348406774
 C          3.5584340506       -1.3321504200       -0.4419718076
 C          4.1927242404       -2.3432463692        0.5214128634
 H          4.2387898907       -3.3169984396        0.0318701142
 H          5.2232881303       -2.0424332990        0.7203145335
 C          3.5032811600       -2.4921803382        1.8812226433
 H          3.8905137399       -3.3995748678        2.3514181641
 H          3.7808005297       -1.6478971377        2.5170675827
 C          1.9739060000       -2.5563712883        1.8686582328
 H          1.5621486399       -1.5504963585        1.7565805319
 H          1.6454392297       -2.9044870176        2.8509551330
 C          1.3637713104       -3.4602220292        0.7794218933
 H          2.1375460506       -4.0493216596        0.2887751640
 H          0.6437190503       -4.1440795690        1.2345040036
 H          2.9679833104       -0.6008550696        0.1125309016
 H          4.3570849108       -0.7862606703       -0.9463265478
 H          2.7847956613       -1.4066086017       -2.4611962778
 H          3.0198347512       -2.9948821411       -1.7257720065
 O          0.5188781212       -1.2288130316       -2.1192216287
 C         -0.8315842389       -0.9922096716       -1.9489055893
 O         -1.3258147887       -0.2280692723       -2.8035382301
 O         -1.4076721697       -3.1494347894        0.9088866422
 C         -2.9420571293       -1.1014549008       -0.7357542399
 C         -2.8811600695        0.3802650994       -0.4416280411
 C         -3.7575660994        1.2810000189       -1.0336057521
 C         -3.6367913896        2.6376988991       -0.7892187331
 C         -2.6286618499        3.1222446698        0.0247344169
 C         -1.7450464100        2.2295175804        0.6231969679
 C         -1.8986746898        0.8670489602        0.4091832289
 H         -1.2132811999        0.1785122806        0.8802778496
 N         -0.7116603503        2.7006120711        1.4465424978
 S          0.7922081897        2.0092866114        1.6193085389
 O          0.6687304597        0.6129941916        1.9527310599
 O          1.4498511793        2.8424739422        2.6018551284
 C          1.6715499302        2.1571864002        0.0710456890
 C          2.9773439501        2.6079108204        0.1132334091
 C          3.7113469205        2.6609309395       -1.0603964107
 C          3.1315798810        2.2625739985       -2.2554611405
 C          1.8187053410        1.8200093684       -2.2837225306
 C          1.0798319506        1.7636145293       -1.1121118708
 H          0.0612705106        1.4091506492       -1.1257236509
 H          1.3535150913        1.5000257776       -3.2029660405
 H          3.7033886613        2.2957077879       -3.1694511204
 H          4.7321811705        3.0069384396       -1.0385623406
 H          3.3867597898        2.9056163611        1.0648618690
 H         -0.6536451204        3.7045872112        1.5275936371
 H         -2.5175883200        4.1827861400        0.1909124561
 H         -4.3205251995        3.3296916787       -1.2566948639
 H         -4.5177975691        0.9159791183       -1.7080819320
 H         -3.4252149089       -1.2157302216       -1.7212186100
 C         -3.7874030595       -1.8587076901        0.2727770604
 C         -3.9403835101       -1.4134306690        1.6927824200
 C         -5.0955191698       -1.2972198198        0.7458385695
 H         -5.9286638397       -1.9730407198        0.8650703197
 H         -5.3706534597       -0.3071728201        0.4154078386
 H         -3.9600821503       -2.1756424484        2.4566744206
 H         -3.4360234102       -0.5091916587        1.9995890694
 H         -3.7489133594       -2.9293709802        0.1109669812
