  62
        -98.94025021
 C          1.7671333739        1.1608128254       -0.2247547343
 C          3.1121005629        1.3668712645        0.1589975828
 C          4.0818833728        0.3478222415       -0.2790034277
 C          3.6480214209       -0.6936540253       -1.0103300153
 C          4.4534424195       -1.8626605676       -1.5061317572
 C          4.3743624730       -3.0355645502       -0.5139666784
 C          5.4177737555       -3.0062870012        0.6021514322
 H          6.4001596472       -3.2296950072        0.1808480853
 H          5.1703362052       -3.8098270106        1.2996342529
 C          5.5074813182       -1.6908252029        1.3802004832
 H          5.9820091427       -1.9015647304        2.3406033380
 H          4.5032740988       -1.3187031186        1.5910738993
 C          6.3218159859       -0.6119537037        0.6506833794
 H          6.8634539219       -1.0721239170       -0.1755409765
 H          7.0770508298       -0.2088859137        1.3286519070
 C          5.5094711312        0.5844404575        0.1326927872
 H          6.0432798625        1.0414597140       -0.7072998366
 H          5.4484599629        1.3482864209        0.9143666428
 H          4.4960794149       -3.9698979720       -1.0656027375
 H          3.3711913946       -3.0397655730       -0.0801015500
 H          5.4831330203       -1.5716464696       -1.6909019774
 H          4.0010494475       -2.1738638081       -2.4500424799
 O          2.3422729847       -0.8506563001       -1.3628197715
 C          1.3721057518        0.0597990488       -0.9823320791
 O          0.2234317410       -0.2202067147       -1.3726387189
 O          3.4859674376        2.3537423664        0.8490043029
 C          0.7161910383        2.1717047113        0.1972951752
 C         -0.3503588175        1.4903522008        1.0177558980
 C          0.0327447640        0.7985948187        2.1654230611
 C         -0.9026563716        0.1549724533        2.9509421478
 C         -2.2427723274        0.1789461791        2.6034008784
 C         -2.6363901461        0.8680171647        1.4640396837
 C         -1.6946076770        1.5276124531        0.6840020092
 H         -2.0329486674        2.0470918692       -0.1962184568
 N         -3.9943990056        0.9303737375        1.0936921286
 S         -4.4551824334        0.3437875182       -0.4072204894
 O         -3.7968081214        1.0865794973       -1.4487134321
 O         -5.9011608403        0.4050272371       -0.3946307673
 C         -3.9359673092       -1.3628226454       -0.3916880210
 C         -2.6155100908       -1.6769156195       -0.6423733651
 C         -2.2206126151       -3.0032099679       -0.5478508436
 C         -3.1396342094       -3.9829051862       -0.2067263590
 C         -4.4626378160       -3.6483902396        0.0415115005
 C         -4.8649454858       -2.3260787547       -0.0457022968
 H         -5.8827756521       -2.0195845462        0.1345908761
 H         -5.1773948710       -4.4115832941        0.3042969706
 H         -2.8223909973       -5.0114982589       -0.1356778935
 H         -1.1894128995       -3.2520610298       -0.7435004659
 H         -1.9096291543       -0.9065192868       -0.9109953025
 H         -4.6198436042        0.5571499225        1.7948891883
 H         -2.9771349293       -0.3273053675        3.2116207629
 H         -0.5882966165       -0.3747118886        3.8374604368
 H          1.0808844107        0.7756018878        2.4315961535
 H          1.2430571182        2.8869164178        0.8462969966
 C          0.1791593568        2.9160068513       -1.0063361079
 C         -0.3857036563        4.2943648029       -0.8435624433
 C          0.9348469962        4.1009392490       -1.5249895283
 H          0.9926138538        4.2486548583       -2.5930295656
 H          1.8315685992        4.3877165465       -0.9950797572
 H         -1.2392957408        4.5732298782       -1.4430844831
 H         -0.3869492074        4.7195059966        0.1487849277
 H         -0.2830010860        2.2610715238       -1.7373467720
