  62
        -98.93720318
 C         -1.8436757305       -0.6844278707        0.8255824598
 C         -2.2600186007       -0.3836299598       -0.4911166899
 C         -3.7147301308       -0.4111631196       -0.7482625796
 C         -4.5454825006       -0.7405664804        0.2584446703
 C         -6.0498716206       -0.7921683704        0.2416723906
 C         -6.6883253106        0.6056975195        0.3055771317
 C         -6.0232448508        1.6588311602       -0.5774210576
 H         -4.9666820208        1.7338149600       -0.3131653078
 H         -6.4832710708        2.6236113400       -0.3472975468
 C         -6.1548002311        1.4261061612       -2.0806129278
 H         -5.6958266713        2.2815606516       -2.5829045972
 H         -7.2137705012        1.4129941114       -2.3486408676
 C         -5.5035326212        0.1514927717       -2.6202256788
 H         -5.4842036314        0.2339513225       -3.7109662888
 H         -6.1064959711       -0.7221785285       -2.3880756594
 C         -4.0598880711       -0.0679056486       -2.1773827593
 H         -3.4712487112        0.8244676916       -2.4190219688
 H         -3.6282282012       -0.8709690082       -2.7869332700
 H         -6.6297748304        0.9552299987        1.3393428220
 H         -7.7428521507        0.5170262296        0.0393681719
 H         -6.3942815707       -1.3381388998       -0.6314619297
 H         -6.3550542004       -1.3539933811        1.1272064702
 O         -4.0936732803       -1.0420831413        1.5102838700
 C         -2.7508744502       -1.0158271615        1.8298363497
 O         -2.4931432100       -1.2983911524        3.0184631395
 H          2.1349025894       -0.0649097402        0.2132840294
 C          1.5358050194        0.8121358197        0.3937834002
 C          0.2408941295        0.6875072093        0.8742148403
 C         -0.4928736905        1.8463486691        1.1132589213
 C          0.0439626794        3.0912582793        0.8500904721
 C          1.3359292793        3.2105351197        0.3692287019
 C          2.0862033593        2.0630624799        0.1489290410
 N          3.4001868692        2.1457781403       -0.3364130593
 S          4.5861102294        1.1685667898        0.3265240398
 O          4.3286536297        0.8885594688        1.7197922396
 O          5.8285608293        1.8538184501        0.0372639900
 C          4.5352919892       -0.3365449795       -0.6229939713
 C          4.2558659589       -0.2765663085       -1.9738880612
 C          4.2694026288       -1.4495453879       -2.7116835421
 C          4.5701465790       -2.6540534784       -2.0937979030
 C          4.8543195893       -2.6965307294       -0.7376463131
 C          4.8370055394       -1.5274621799        0.0073155878
 H          5.0387265896       -1.5174729107        1.0665068877
 H          5.0872526194       -3.6336721397       -0.2572351938
 H          4.5812022989       -3.5649108080       -2.6714833837
 H          4.0447700686       -1.4208508672       -3.7657758320
 H          4.0228127288        0.6744151918       -2.4228345105
 H          3.7378058691        3.0852111204       -0.4881255486
 H          1.7592576992        4.1829666199        0.1676659426
 H         -0.5447193206        3.9785746192        1.0293132129
 H         -1.4982887704        1.7579700588        1.5025177315
 C         -0.3689831904       -0.6600716009        1.1775513295
 H         -0.3124353001       -0.8169526917        2.2656628194
 C          0.3420359495       -1.8052556204        0.4841731785
 C          1.5147891597       -2.4790356708        1.1287816478
 C          0.1969755397       -3.1871861508        1.0443695575
 H          0.0985043296       -4.0149670003        0.3585648769
 H         -0.3878540401       -3.2948898915        1.9465972276
 H          1.8366597199       -2.1124190315        2.0923295080
 H          2.3203683195       -2.8215352604        0.4967050673
 H          0.3423437493       -1.6977063296       -0.5945490014
 O         -1.4590638809       -0.0928311991       -1.4175827299
