  62
        -98.93792649
 C         -1.7735588704       -1.6290287647        0.0667823778
 C         -1.6916286310       -0.2707702718       -0.3107885635
 C         -2.9437016079        0.5084491611       -0.2501370310
 C         -4.0711333118       -0.0988683699        0.1619217555
 C         -5.4581806758        0.4766766985        0.2975719540
 C         -5.5664850662        1.8642922592        0.9487251165
 C         -5.9623509532        2.9674847354       -0.0341185182
 H         -6.7163807541        2.5703783896       -0.7169305585
 H         -6.4269848471        3.7830613986        0.5245115540
 C         -4.8099711184        3.5601343001       -0.8432101771
 H         -4.1866890458        4.1724677425       -0.1880403116
 H         -5.2421403647        4.2251118982       -1.5946785578
 C         -3.9127645681        2.5412344266       -1.5491486134
 H         -4.5106885877        1.7387964165       -1.9797408198
 H         -3.4198521987        3.0505580846       -2.3801064609
 C         -2.8173796251        1.9545251541       -0.6461924057
 H         -1.8512430977        2.0143213921       -1.1575074132
 H         -2.7185908899        2.5594681232        0.2599101238
 H         -4.6297298619        2.1155431594        1.4436465210
 H         -6.3353437481        1.8101355386        1.7211371775
 H         -5.9245928471        0.4932544000       -0.6905938446
 H         -6.0117974667       -0.2556151822        0.8896062684
 O         -4.1020505222       -1.4173355824        0.5127217157
 C         -2.9712976451       -2.2110973540        0.4775319969
 O         -3.1547089679       -3.3918080373        0.8360741373
 H          2.1009275144       -1.9000656438       -0.6139055326
 C          1.8350525987       -1.6576939059        0.4008547331
 C          0.5548153804       -1.8906430703        0.8765671314
 C          0.2640326191       -1.5596955613        2.1985450261
 C          1.2248992260       -0.9974196256        3.0154027795
 C          2.4963699490       -0.7444358257        2.5291148626
 C          2.7994277770       -1.0768125849        1.2153124997
 N          4.0901140548       -0.8562498457        0.6979939487
 S          4.2882688011        0.0687426500       -0.6844229717
 O          3.5933526412       -0.5401719328       -1.7878714293
 O          5.7219623546        0.2031143718       -0.8285908018
 C          3.5854674350        1.6572760983       -0.2771564416
 C          4.4419458889        2.6761481894        0.0954344367
 C          3.9109482122        3.9002054855        0.4666742868
 C          2.5358696174        4.0816852113        0.4692110923
 C          1.6917013445        3.0471387761        0.0982763753
 C          2.2146722975        1.8196550232       -0.2799653525
 H          1.5643170786        1.0099025021       -0.5705493903
 H          0.6207767876        3.1747992883        0.0989067248
 H          2.1196265541        5.0333175031        0.7604613032
 H          4.5675187141        4.7057949509        0.7537814008
 H          5.5037685229        2.4903244075        0.0747038380
 H          4.7588587557       -0.5557049230        1.3937037643
 H          3.2478076938       -0.2982961691        3.1629582632
 H          0.9821740276       -0.7465971834        4.0370009519
 H         -0.7325557575       -1.7499375574        2.5743520629
 C         -0.5324172385       -2.5020448781        0.0269963949
 H         -0.8215905523       -3.4619023813        0.4798358453
 C         -0.1146110285       -2.7500541376       -1.4073072242
 C          0.6217483440       -4.0031065419       -1.7704290113
 C         -0.8058647252       -3.8240844521       -2.1896520358
 H         -1.0202684774       -3.6460170147       -3.2328062385
 H         -1.5663576227       -4.3970525234       -1.6787515649
 H          0.8326926100       -4.7063482521       -0.9788709417
 H          1.3918804620       -3.9454683605       -2.5251293021
 H          0.1446805892       -1.8388354666       -1.9351409119
 O         -0.6209878723        0.2755247457       -0.6844618629
