  62
        -98.94402623
 C         -2.4971179570       -1.1545635324       -0.0892827590
 C         -3.2533279242       -0.4247628338        0.8577081936
 C         -4.0609153028        0.6796766102        0.3231857876
 C         -4.0381473776        0.9303293564       -0.9990144665
 C         -4.7680695809        2.0571215635       -1.6699802320
 C         -3.8901177024        3.3133886017       -1.7573208205
 C         -3.2239592081        3.6941229805       -0.4350364388
 H         -2.5064135436        2.9169947133       -0.1604321064
 H         -2.6536955044        4.6093188492       -0.6085982212
 C         -4.2016068870        3.9138257799        0.7280442660
 H         -3.9138051527        4.8227775420        1.2606031119
 H         -5.2088160297        4.0704016869        0.3405183460
 C         -4.2267474676        2.7836930977        1.7590056497
 H         -4.7792250919        3.1346994174        2.6346980472
 H         -3.2070183854        2.5621828983        2.0857015672
 C         -4.8816580368        1.4746526530        1.2996594266
 H         -5.8722983338        1.6832616029        0.8908697042
 H         -5.0004240849        0.8368093644        2.1805563045
 H         -4.5074044334        4.1427837172       -2.1067941807
 H         -3.1058422826        3.1370213288       -2.4970048741
 H         -5.0346267202        1.7404343158       -2.6795839098
 H         -5.6786269442        2.2748222975       -1.1153011205
 O         -3.2981684159        0.2081597885       -1.8780474988
 C         -2.5005194016       -0.8433231119       -1.4493289540
 O         -1.8605676454       -1.4058897416       -2.3563376098
 O         -3.2481825064       -0.6807747265        2.0933004606
 C         -1.6324433216       -2.3060321731        0.3885229710
 C         -0.1805553253       -2.0499646803        0.0642964310
 C          0.6683767296       -3.0209572068       -0.4500157338
 C          1.9962424242       -2.7263489292       -0.7083818832
 C          2.5067392833       -1.4660636367       -0.4599795660
 C          1.6705740697       -0.4901013244        0.0669048943
 C          0.3434055754       -0.7904449729        0.3301576245
 H         -0.3053600125       -0.0283557031        0.7461940070
 N          2.1790680967        0.7980183116        0.3161389647
 S          3.5579931217        0.9219942515        1.2693000059
 O          3.6534059452       -0.1762243137        2.2030602773
 O          3.5034217076        2.2496903192        1.8415605030
 C          4.8984949101        0.8490924538        0.1005108299
 C          5.8852258954       -0.1066612486        0.2430293443
 C          6.9257234141       -0.1366289108       -0.6725717426
 C          6.9606724304        0.7847249637       -1.7080178257
 C          5.9628074216        1.7397007520       -1.8356023621
 C          4.9208079431        1.7762066499       -0.9229464484
 H          4.1285215196        2.5036341143       -0.9840992252
 H          5.9932227533        2.4545955831       -2.6420487298
 H          7.7702610193        0.7588783788       -2.4201546406
 H          7.7026678460       -0.8777081996       -0.5750006878
 H          5.8128030284       -0.8059033611        1.0606845604
 H          1.4785927623        1.4540243372        0.6303477450
 H          3.5376786647       -1.2308777324       -0.6680997100
 H          2.6420433453       -3.4899816175       -1.1140430798
 H          0.2896726142       -4.0090865315       -0.6527452568
 H         -1.7362712103       -2.3143117911        1.4845927912
 C         -2.1539746508       -3.6189582880       -0.1572683240
 C         -1.9765883712       -4.8870635447        0.6215715125
 C         -3.3325707174       -4.2595384278        0.5104386280
 H         -4.0771614945       -4.7397734343       -0.1064064082
 H         -3.7405361209       -3.7619207343        1.3783572761
 H         -1.7924390347       -5.8029735456        0.0806296095
 H         -1.4659473803       -4.8240393087        1.5707364242
 H         -2.1038574229       -3.6676943643       -1.2391748818
