  62
        -98.93753730
 C          1.9974979886        0.8644334704        0.4890437165
 C          2.0705969196        0.1684413991       -0.7394826426
 C          2.2749664136       -1.2878060731       -0.6536982645
 C          2.3466495679       -1.8683782755        0.5563412622
 C          2.5850914169       -3.3215917207        0.8616198952
 C          4.0837736175       -3.5978111382        1.0716615822
 C          4.8655367145       -3.9141829492       -0.2027926311
 H          5.9227831070       -3.9588809446        0.0681021376
 H          4.5767381820       -4.9035679465       -0.5632563569
 C          4.6922639157       -2.9081440600       -1.3435191544
 H          4.7230724701       -1.8921760273       -0.9458327805
 H          5.5427901689       -3.0181355364       -2.0189200620
 C          3.3956904638       -3.1160983148       -2.1402741238
 H          2.9647028020       -4.0811548323       -1.8745036824
 H          3.6297394048       -3.1636660890       -3.2057302160
 C          2.3384012248       -2.0151479536       -1.9690026587
 H          2.5068311879       -1.2278052579       -2.7107619837
 H          1.3465195251       -2.4310791937       -2.1770103628
 H          4.5179208510       -2.7238889726        1.5640954430
 H          4.1909963287       -4.4437870033        1.7535868981
 H          2.0553016582       -3.5321975596        1.7932415348
 H          2.1725449188       -3.9496897906        0.0776659299
 O          2.2607134319       -1.1607446954        1.7178337444
 C          2.0701983180        0.2080673419        1.7152358803
 O          1.9895381718        0.7216954668        2.8520692306
 H         -0.4784526508        0.8542096176        0.4727724014
 C         -0.6148364389        1.7622273419       -0.0968797017
 C          0.4329658554        2.6672407007       -0.2046054835
 C          0.2265194493        3.8359910225       -0.9268436573
 C         -0.9955827234        4.0780807662       -1.5305873094
 C         -2.0293707327        3.1656639875       -1.4348721835
 C         -1.8303845376        1.9887208041       -0.7194721038
 N         -2.8406251769        1.0149155637       -0.6574386568
 S         -2.7983021583       -0.2097400274        0.4928774563
 O         -2.7381660831        0.3466792876        1.8278853964
 O         -1.7659505718       -1.1530316059        0.1407456150
 C         -4.3998286532       -0.9407526434        0.2102565716
 C         -5.4565222436       -0.6120913114        1.0380147601
 C         -6.7017362869       -1.1681031330        0.7890195753
 C         -6.8688330156       -2.0363454487       -0.2792055060
 C         -5.7984828192       -2.3580538721       -1.1008199791
 C         -4.5509292993       -1.8065204841       -0.8565676780
 H         -3.6874853915       -2.0329486391       -1.4604141316
 H         -5.9308206866       -3.0356398425       -1.9287861562
 H         -7.8385138735       -2.4676429039       -0.4711355396
 H         -7.5344297662       -0.9224935569        1.4280911774
 H         -5.2760968001        0.0603286339        1.8612418101
 H         -3.7708461213        1.3818344487       -0.8000887430
 H         -2.9771019149        3.3513319016       -1.9160078261
 H         -1.1437715202        4.9913643964       -2.0865576674
 H          1.0234195987        4.5560254104       -1.0176208776
 C          1.7353524645        2.3578065646        0.4970857302
 H          1.6240164689        2.6406407530        1.5555775490
 C          2.9164287281        3.1068474055       -0.0880453713
 C          3.2993824340        4.4567109265        0.4377587226
 C          4.1533494481        3.2641001733        0.7428504065
 H          5.1146827630        3.1766360371        0.2594820413
 H          4.1289997672        2.8578347150        1.7440735029
 H          3.6794624710        5.1912567499       -0.2561846708
 H          2.7054827065        4.8688328342        1.2397389672
 H          3.0449473499        2.9108622996       -1.1462794749
 O          1.9745181204        0.7359035342       -1.8601491165
