  62
        -98.94471239
 C         -2.5575836253       -0.8948482646        0.2787238212
 C         -2.5086791435       -0.0103824853       -0.8262697464
 C         -2.8544486788        1.3909608189       -0.5463203759
 C         -3.2191165403        1.7528165888        0.6959228577
 C         -3.5421618993        3.1529233297        1.1274953561
 C         -2.2983521810        3.8717891037        1.6675087282
 C         -1.0737642384        3.7741037072        0.7565524343
 H         -0.7173401867        2.7411382901        0.7236208269
 H         -0.2790115514        4.3652483398        1.2175306071
 C         -1.3039601419        4.2673329591       -0.6784905843
 H         -0.4484066562        4.8766374247       -0.9776251281
 H         -2.1891071385        4.9042003251       -0.7177757195
 C         -1.4321640640        3.1493668126       -1.7152090474
 H         -0.6017008367        2.4475697507       -1.5900012861
 H         -1.3364451083        3.5937988314       -2.7101910541
 C         -2.7507289962        2.3643485463       -1.6860687654
 H         -2.8036275156        1.7661615280       -2.6005087191
 H         -3.5927821283        3.0596978385       -1.6816622780
 H         -2.0385822570        3.4354805676        2.6346416748
 H         -2.5505297285        4.9223403161        1.8243360115
 H         -4.2924170620        3.1030632808        1.9186267065
 H         -3.9540469173        3.7018713486        0.2830475503
 O         -3.2989884015        0.8703221681        1.7233403668
 C         -2.9400754595       -0.4536175798        1.5502194429
 O         -3.0167675601       -1.1412289476        2.5881041165
 O         -2.1968096962       -0.3465019370       -2.0020436987
 C         -2.1268354736       -2.3551365301        0.2084370178
 C         -0.6198315700       -2.3983832851        0.2893362972
 C          0.0326698229       -2.9188638847        1.4008866054
 C          1.4114320936       -2.8512352044        1.5064269018
 C          2.1649786038       -2.2379447157        0.5202211929
 C          1.5191639588       -1.7154598574       -0.5912755810
 C          0.1450638928       -1.8231484480       -0.7155111925
 H         -0.3432928513       -1.3962714688       -1.5788825668
 N          2.2695192994       -0.9933704705       -1.5581694639
 S          2.5184588718        0.5988229801       -1.0456921102
 O          1.4057775666        1.0833410746       -0.2595215651
 O          2.8426136630        1.3537406645       -2.2366768821
 C          3.9670071612        0.4443330825       -0.0244518141
 C          5.1688536508        0.1490291382       -0.6381526763
 C          6.2997865562       -0.0080280297        0.1468070117
 C          6.2091720641        0.1305007195        1.5241238699
 C          4.9952604522        0.4283474181        2.1244354154
 C          3.8600690888        0.5869546734        1.3445291128
 H          2.8936520665        0.8134922558        1.7664686417
 H          4.9261066374        0.5351415310        3.1950884920
 H          7.0898731327        0.0056058324        2.1341356312
 H          7.2456203306       -0.2394086892       -0.3158599808
 H          5.1913659666        0.0546193408       -1.7109898406
 H          1.7935871861       -0.9558466349       -2.4508532394
 H          3.2363489510       -2.1553360846        0.6065733319
 H          1.9025403763       -3.2613850746        2.3755288571
 H         -0.5533616884       -3.3533891955        2.1978325460
 H         -2.5291529158       -2.8300506242        1.1129821686
 C         -2.6586662367       -3.0969244597       -1.0003488075
 C         -2.7199526752       -4.5933792380       -0.9599150406
 C         -3.9835653025       -3.7894246569       -0.9073344785
 H         -4.6295504781       -3.7808566274       -1.7723064148
 H         -4.5127684970       -3.7301332614        0.0327090763
 H         -2.4967185667       -5.1416550702       -1.8621666051
 H         -2.3938746653       -5.0826650968       -0.0546201308
 H         -2.4121589908       -2.6262130973       -1.9424896725
