  62
        -98.94186269
 C         -1.7158934385       -0.1184225561        0.4598280597
 C         -2.8278289700       -0.8378102583        0.9699956465
 C         -4.1406645485       -0.2055372272        0.8029610924
 C         -4.2240740324        1.0179375343        0.2509417510
 C         -5.4868860879        1.8057496583        0.0305313212
 C         -6.2312258223        1.4407035324       -1.2612176818
 C         -6.9421030910        0.0867724256       -1.2423783536
 H         -7.5772357490        0.0237434797       -0.3582551108
 H         -7.5961174325        0.0566658868       -2.1161426301
 C         -5.9999980667       -1.1244018830       -1.2895907460
 H         -5.0120058433       -0.8033949894       -1.6284591908
 H         -6.3695472339       -1.8450344589       -2.0226546142
 C         -5.8525412575       -1.8650104179        0.0397944002
 H         -5.1372056419       -2.6797623129       -0.0993967302
 H         -6.8117013476       -2.3043903967        0.3221860545
 C         -5.3552503856       -0.9898829476        1.1979404665
 H         -6.1483664875       -0.3217587995        1.5326311039
 H         -5.0735551824       -1.6440946006        2.0265530778
 H         -6.9792926171        2.2173763883       -1.4365486252
 H         -5.5226861170        1.4692238260       -2.0925073443
 H         -6.1528714077        1.6777958649        0.8843931873
 H         -5.1918562826        2.8557689498       -0.0267979314
 O         -3.1284533180        1.7076521250       -0.1606878387
 C         -1.8517273871        1.1576401267       -0.0892544086
 O         -0.9621469356        1.9080466577       -0.5306402957
 O         -2.7257092668       -1.9544505923        1.5430691909
 C         -0.3518403875       -0.7743552903        0.5777065867
 C          0.6718459540        0.2048272300        1.0898906627
 C          0.5674762133        0.6616183907        2.4014584146
 C          1.4776462537        1.5681526130        2.9082568707
 C          2.5253539746        2.0216652509        2.1255902192
 C          2.6368483576        1.5736875285        0.8153360294
 C          1.7134974738        0.6711295388        0.3046505940
 H          1.7938427985        0.3786904704       -0.7281567406
 N          3.6855096587        2.0137218735       -0.0022797315
 S          4.3451888382        1.0037378700       -1.1514750482
 O          5.6883187267        1.5101516970       -1.3433764013
 O          3.5229182291        0.9568480400       -2.3339491808
 C          4.4096599154       -0.6103368061       -0.3906216878
 C          5.0292363120       -0.7396925647        0.8367153812
 C          5.0769448293       -1.9879151957        1.4356158316
 C          4.5107965497       -3.0820757466        0.7994537620
 C          3.9010801487       -2.9384383460       -0.4369391292
 C          3.8477952060       -1.6910175936       -1.0386390248
 H          3.3769376970       -1.5327592061       -1.9959246441
 H          3.4632587421       -3.7906827077       -0.9322480087
 H          4.5453641038       -4.0526851331        1.2684959217
 H          5.5528797668       -2.1036455249        2.3959290330
 H          5.4673339396        0.1271496096        1.3035781028
 H          4.3758748561        2.5949424140        0.4480327709
 H          3.2397787336        2.7287059200        2.5188548405
 H          1.3778469970        1.9205305901        3.9238033587
 H         -0.2489689858        0.3047730497        3.0143693288
 H         -0.4919408122       -1.5512435156        1.3479582862
 C          0.1026225507       -1.4938404756       -0.6833655939
 C         -0.8850241893       -2.1355173098       -1.6097242144
 C         -0.1151183909       -0.9296378172       -2.0539041705
 H          0.6652156433       -1.0519117350       -2.7916414732
 H         -0.6306406047        0.0152605567       -2.1314280722
 H         -0.6385527197       -3.0935652381       -2.0417835881
 H         -1.9347397377       -2.0149809118       -1.3844116579
 H          1.0327842345       -2.0309276091       -0.5229484793
