  62
        -98.94438330
 C         -1.8491132221       -1.0373841472       -0.2125829812
 C         -2.3839533755        0.1026283727       -0.8591396068
 C         -3.8484469653        0.2294955082       -0.8197376107
 C         -4.5782818219       -0.7256822213       -0.2150310810
 C         -6.0704831163       -0.6945188331       -0.0576406034
 C         -6.4754966297       -0.0216487090        1.2614141881
 C         -5.7893823701        1.3225488482        1.5050227232
 H         -6.1741912632        1.7181160915        2.4474856821
 H         -4.7178435253        1.1577087628        1.6389252198
 C         -6.0048785094        2.3563303029        0.3909577747
 H         -6.8598169326        2.0682691139       -0.2218625045
 H         -6.2435421084        3.3190907887        0.8477903223
 C         -4.7888663713        2.5805289190       -0.5100646796
 H         -4.9726316639        3.4737820261       -1.1132119322
 H         -3.9067051884        2.7775102939        0.1046668978
 C         -4.4547009376        1.4373552606       -1.4767690937
 H         -5.3459413926        1.1625698968       -2.0447895021
 H         -3.6999865013        1.8059624725       -2.1778993548
 H         -6.2181583428       -0.6917221505        2.0849463186
 H         -7.5583453230        0.1153649273        1.2607293151
 H         -6.5082895232       -0.1616505228       -0.8994029599
 H         -6.4379387460       -1.7220738720       -0.0588468982
 O         -4.0283002598       -1.8186821850        0.3731437793
 C         -2.6548080920       -1.9967804838        0.4000462918
 O         -2.2795569429       -3.0290308893        0.9917231434
 H          1.8466839196        0.1722729244       -1.1085972613
 C          1.4461391933        0.5426216396       -0.1801166525
 C          0.3448000716       -0.0580634054        0.4083423793
 C         -0.1373852000        0.4636570942        1.6070187639
 C          0.4459300669        1.5752194587        2.1812018724
 C          1.5359034181        2.1827305845        1.5819574352
 C          2.0349004353        1.6621129466        0.3953201275
 N          3.1383454726        2.2562114301       -0.2352218796
 S          4.3166196761        1.2925183227       -0.9199552625
 O          5.4993680633        2.1264916746       -0.9394322604
 O          3.8835559778        0.7888265472       -2.1983021893
 C          4.5366108801       -0.0540512524        0.2303580566
 C          4.8673538880        0.2476337873        1.5370706268
 C          5.0209574190       -0.7864665711        2.4455089837
 C          4.8438890603       -2.0989799118        2.0344928968
 C          4.5205235785       -2.3857039850        0.7177625084
 C          4.3633624236       -1.3543900179       -0.1947298689
 H          4.1075817136       -1.5334416376       -1.2261712298
 H          4.3878939856       -3.4071914260        0.3980598968
 H          4.9604359304       -2.9032634692        2.7436786946
 H          5.2760357706       -0.5674648433        3.4698099238
 H          5.0085072524        1.2769027491        1.8238315351
 H          3.5354657281        3.0434823225        0.2555496917
 H          1.9877103788        3.0583631022        2.0225316093
 H          0.0516461088        1.9733012220        3.1040452990
 H         -0.9900162174       -0.0103195275        2.0746579929
 C         -0.3468346446       -1.2576373201       -0.1908835179
 H         -0.1748417225       -2.1200586477        0.4698593961
 C          0.1383880765       -1.6070624486       -1.5823341426
 C          1.3119174339       -2.5186039554       -1.7697991546
 C         -0.0700394563       -3.0009870994       -2.0906712373
 H         -0.3450581155       -3.1369497902       -3.1259027829
 H         -0.5357133252       -3.7071515601       -1.4184433229
 H          1.9887961257       -2.3204498085       -2.5877898944
 H          1.7867500955       -2.9064573142       -0.8814871639
 H          0.0037707944       -0.7946865049       -2.2879611106
 O         -1.6787733493        0.9702327411       -1.4375995875
