  62
        -98.93136310
 C         -2.3364235472       -0.7750261040       -0.0654543413
 C         -3.5490749032       -0.8938574874        0.6504098796
 C         -4.6986922511       -0.1230431873        0.1420648922
 C         -4.5270056486        0.6716994643       -0.9297187054
 C         -5.5368740228        1.5463626155       -1.6290925491
 C         -6.4676038191        2.3790919313       -0.7340739834
 C         -7.9175279324        1.8914492898       -0.7430166632
 H         -8.5679459057        2.7250703796       -0.4689134036
 H         -8.1784949435        1.5963654703       -1.7614781399
 C         -8.2206636643        0.7369823140        0.2105090504
 H         -8.2033842710        1.1038651727        1.2391287742
 H         -9.2382268586        0.3967209208        0.0044484232
 C         -7.2735697764       -0.4603805664        0.1098316389
 H         -7.0377394385       -0.6746257562       -0.9318850428
 H         -7.7970232838       -1.3339686812        0.5041230579
 C         -5.9777501735       -0.2891760599        0.9166787064
 H         -6.0795996505        0.5480854656        1.6133252536
 H         -5.8112397212       -1.1754192511        1.5370171380
 H         -6.0808947836        2.4019698894        0.2836182292
 H         -6.4557537122        3.4049264572       -1.1060172564
 H         -4.9441770302        2.2079479915       -2.2649161615
 H         -6.1307313248        0.9204452427       -2.2998885104
 O         -3.3310721648        0.7695993264       -1.5782210192
 C         -2.2141094436        0.0576162470       -1.1766923525
 O         -1.2036769326        0.2495798327       -1.8785562849
 O         -3.6714355907       -1.6187708694        1.6753783812
 C         -1.1218810659       -1.5501660900        0.4147187985
 C         -0.0564242707       -0.5730281936        0.8470045258
 C         -0.3346196370        0.2800928948        1.9124962666
 C          0.5953884811        1.2091954883        2.3357524520
 C          1.8223054856        1.3136727808        1.7031705370
 C          2.1113158493        0.4667377584        0.6427769175
 C          1.1789648344       -0.4784768881        0.2284651889
 H          1.4172033960       -1.1275543770       -0.5994164134
 N          3.3443968514        0.5803049151       -0.0234957611
 S          4.7320728009        0.7877559225        0.9147227445
 O          4.7444869916       -0.1658821150        2.0020093547
 O          4.8276113126        2.1746854248        1.2960755490
 C          6.0017910549        0.3986220637       -0.2729023015
 C          6.3941359886        1.3762180677       -1.1675195833
 C          7.3611380731        1.0701058363       -2.1116430288
 C          7.9156564893       -0.2008858096       -2.1458565245
 C          7.5124190206       -1.1709943931       -1.2406102426
 C          6.5446370115       -0.8720401357       -0.2944311690
 H          6.2068559955       -1.5920656131        0.4337120738
 H          7.9475056089       -2.1570573358       -1.2681498600
 H          8.6690759076       -0.4359856970       -2.8810049511
 H          7.6790553076        1.8221119572       -2.8156675939
 H          5.9415078582        2.3515384920       -1.0979529818
 H          3.4732666127       -0.1478977572       -0.7125432595
 H          2.5574833995        2.0352048217        2.0213139231
 H          0.3654559714        1.8622725816        3.1645985220
 H         -1.2957056653        0.2037961688        2.4030080338
 H         -1.4600949856       -2.0984379590        1.3056630156
 C         -0.6656971892       -2.5474402580       -0.6281542632
 C          0.1801419287       -3.7161758564       -0.2214174176
 C         -1.2489945606       -3.9273429061       -0.6192940615
 H         -1.4567244788       -4.4044404076       -1.5652693911
 H         -1.9678764210       -4.1586056063        0.1529475962
 H          0.9537247859       -4.0538015482       -0.8944387868
 H          0.4353522325       -3.8060984554        0.8237410165
 H         -0.4810911196       -2.0914372071       -1.5940540067
