  62
        -98.93802683
 C          2.3994955730       -1.2114525189        0.0986616601
 C          3.1572597880       -0.4803067485       -0.8422357617
 C          3.9957711952        0.6162707855       -0.3195053431
 C          3.9862969958        0.8610558905        1.0044199210
 C          4.7187763563        1.9415519886        1.7543610990
 C          4.0614682727        3.3224582033        1.5941913942
 C          3.6115073236        3.6608469511        0.1750685879
 H          3.0583980280        4.6029120230        0.2173198337
 H          2.9164161361        2.8942357376       -0.1735148098
 C          4.7367240363        3.8268210189       -0.8436629006
 H          5.3989023001        4.6316537291       -0.5166638323
 H          4.2783484735        4.1370275456       -1.7864883501
 C          5.5840707655        2.5820798085       -1.1138922803
 H          6.2902818432        2.4073797934       -0.3068637728
 H          6.1794571978        2.7829072454       -2.0093831223
 C          4.7855584233        1.3140298939       -1.4009054241
 H          5.4693461286        0.5562055500       -1.8027276944
 H          4.0739241229        1.5150388709       -2.2102899519
 H          4.7614718060        4.0816715699        1.9465189386
 H          3.1787119583        3.3517689452        2.2375858277
 H          5.7597896788        1.9681217041        1.4466874428
 H          4.6903734550        1.6643926129        2.8102999204
 O          3.2251273151        0.1377314137        1.8744528003
 C          2.4155185257       -0.9031304419        1.4585199636
 O          1.7776773178       -1.4592378233        2.3714349007
 O          3.1300817103       -0.7210959798       -2.0813826839
 C          1.5160045351       -2.3462548042       -0.3840817741
 C          0.0687181947       -2.0559562438       -0.0679549660
 C         -0.7995574493       -2.9960251258        0.4705469979
 C         -2.1201975008       -2.6663379140        0.7238567640
 C         -2.6039254346       -1.4015992191        0.4462107232
 C         -1.7483586857       -0.4568625175       -0.1060107631
 C         -0.4284580270       -0.7921453977       -0.3634869343
 H          0.2361678522       -0.0549145567       -0.7984478865
 N         -2.2277598727        0.8359653802       -0.3841148697
 S         -3.6246359547        0.9754214219       -1.3070109202
 O         -3.7702544375       -0.1375166454       -2.2166541129
 O         -3.5506445139        2.2897988465       -1.9071055494
 C         -4.9377598241        0.9594233811       -0.1052631273
 C         -4.8918850016        1.8826928276        0.9208969818
 C         -5.9115676880        1.8909851160        1.8591090765
 C         -6.9554504241        0.9836552871        1.7538415030
 C         -6.9887106504        0.0655986749        0.7154360333
 C         -5.9709267930        0.0508386327       -0.2257083495
 H         -5.9512270009       -0.6482172022       -1.0464701002
 H         -7.8011148284       -0.6386065967        0.6354826010
 H         -7.7470366751        0.9919092968        2.4863563609
 H         -5.8881601131        2.6025549894        2.6687483085
 H         -4.0648277379        2.5715933424        0.9651708255
 H         -1.5165265362        1.4659247856       -0.7262449017
 H         -3.6293215670       -1.1397967967        0.6498112732
 H         -2.7816322935       -3.4057057185        1.1488776982
 H         -0.4420210833       -3.9870279866        0.6962780913
 H          1.6263508555       -2.3566557186       -1.4793802758
 C          2.0052701869       -3.6693907501        0.1659978905
 C          1.7910422071       -4.9354794868       -0.6068185294
 C          3.1639134683       -4.3445511305       -0.5025071760
 H          3.8970187031       -4.8423543217        0.1142035481
 H          3.5824958603       -3.8623119572       -1.3740559507
 H          1.5836086027       -5.8437729597       -0.0615320445
 H          1.2791420740       -4.8624003179       -1.5545686428
 H          1.9573913333       -3.7122360241        1.2482112720
