  62
        -98.94606806
 C         -0.9485079797       -1.6462391145        0.6175055773
 C         -1.7332323100       -1.5548902332       -0.5570470580
 C         -2.8735031453       -0.6291917960       -0.4933287773
 C         -3.0858486361        0.0806710810        0.6297824106
 C         -4.2171513326        1.0469309649        0.8302544516
 C         -3.8303510591        2.4764583706        0.4296476329
 C         -3.1484976976        2.5729837733       -0.9344384136
 H         -2.9429066496        3.6283118316       -1.1224226577
 H         -2.1842352317        2.0612670587       -0.8890281874
 C         -3.9739559395        2.0035772105       -2.0965704737
 H         -5.0219553045        1.9258347522       -1.8045248889
 H         -3.9224937796        2.6996796739       -2.9362521689
 C         -3.4924685687        0.6473019219       -2.6146756113
 H         -2.4184094004        0.6893684433       -2.8128938013
 H         -3.9930603178        0.4503052122       -3.5664762526
 C         -3.7667417746       -0.5525444380       -1.6993865747
 H         -4.8178294793       -0.5567331785       -1.4027790024
 H         -3.5689441438       -1.4617573488       -2.2747153868
 H         -4.7332623202        3.0897523982        0.4322216193
 H         -3.1470364140        2.8704149382        1.1832557922
 H         -5.0716106979        0.7131556068        0.2441913774
 H         -4.4900529205        1.0363009716        1.8870303597
 O         -2.2717580148        0.0114449159        1.7149463441
 C         -1.1889500373       -0.8524039829        1.7381525623
 O         -0.5282406276       -0.8211886576        2.7971523812
 H          1.3143602131       -0.2470716710        0.3154011600
 C          1.7146708295       -0.9617588969       -0.3884537461
 C          1.2456557596       -2.2697619837       -0.3648431251
 C          1.7661632529       -3.1798054755       -1.2747310663
 C          2.7281408206       -2.7810910372       -2.1869583634
 C          3.2092690588       -1.4853710252       -2.1904934987
 C          2.7007291246       -0.5677349125       -1.2769526593
 N          3.1670285855        0.7545907194       -1.2480636377
 S          3.3717512246        1.5535007969        0.2101516271
 O          4.4236818642        2.5128984318       -0.0551827183
 O          3.6109047865        0.6306136533        1.2935677932
 C          1.8528798175        2.4493073580        0.4507882206
 C          1.5772759337        3.4819242739       -0.4250717765
 C          0.4270433205        4.2301453183       -0.2406896998
 C         -0.4255129301        3.9358851836        0.8129121399
 C         -0.1401294253        2.8916746537        1.6783230837
 C          1.0115900008        2.1406880800        1.5001754071
 H          1.2561937686        1.3230005460        2.1620381085
 H         -0.8038618210        2.6452688263        2.4926693868
 H         -1.3151826347        4.5270301309        0.9627641093
 H          0.1990310673        5.0409239196       -0.9134827097
 H          2.2749755536        3.6877978662       -1.2196259434
 H          3.9204234279        0.9527230271       -1.8903126472
 H          3.9713741670       -1.1817689535       -2.8920872165
 H          3.1185656138       -3.4946011983       -2.8967972282
 H          1.4167065260       -4.1989131382       -1.2753827241
 C          0.2118697019       -2.6231666987        0.6768305826
 H          0.6787378755       -2.4822621325        1.6635278054
 C         -0.2957007303       -4.0465194122        0.5770918012
 C          0.4817573740       -5.1677649848        1.1958994913
 C         -0.8086231890       -4.7204620036        1.8126584750
 H         -1.6720266017       -5.3633503161        1.7292923834
 H         -0.7689915730       -4.1608246899        2.7362506647
 H          0.5034494080       -6.1220373329        0.6915774814
 H          1.4001171843       -4.9169653627        1.7054566799
 H         -0.8223922989       -4.2376165906       -0.3505522294
 O         -1.5080174935       -2.2246051506       -1.5984571685
