  62
        -98.93284333
 C         -1.8944577740       -1.5606587054       -0.3085020200
 C         -2.7463792253       -1.1847892288        0.7604651881
 C         -3.9157087902       -0.3440805288        0.4464565584
 C         -4.1140304803        0.0219897130       -0.8330896751
 C         -5.1913058662        0.9119653686       -1.3944042005
 C         -4.9391611941        2.3998930693       -1.1031015010
 C         -4.4949386856        2.7090919674        0.3243022279
 H         -3.5770272032        2.1588549649        0.5409520283
 H         -4.2508090003        3.7738173358        0.3717248811
 C         -5.5320574410        2.4181593996        1.4066960475
 H         -6.4354479732        2.9964886154        1.2005281895
 H         -5.1186366029        2.7739917461        2.3538314294
 C         -5.9237814442        0.9493028335        1.5827297931
 H         -6.6168512017        0.6320250527        0.8082017869
 H         -6.4608289972        0.8680879275        2.5322430417
 C         -4.7472191683       -0.0181870843        1.6636277442
 H         -4.0422630785        0.3348560004        2.4249153857
 H         -5.1133050691       -0.9825127518        2.0361621906
 H         -4.1526297865        2.7473316729       -1.7780500138
 H         -5.8500320993        2.9556552564       -1.3324994001
 H         -5.1871970436        0.7642183701       -2.4766969729
 H         -6.1634295458        0.6034189197       -1.0213596961
 O         -3.2776221580       -0.3708738175       -1.8335279670
 C         -2.1521998947       -1.1575618211       -1.6180389594
 O         -1.5251032654       -1.4136849160       -2.6611956999
 O         -2.5334301097       -1.5440955866        1.9504108489
 C         -0.6803132480       -2.3799745010        0.0959429937
 C          0.2817677188       -1.5053588785        0.8620674554
 C          0.8650860892       -1.9551808933        2.0414712502
 C          1.7343955616       -1.1489397264        2.7535649169
 C          2.0550512285        0.1137468248        2.2887816782
 C          1.4808492775        0.5717371625        1.1090366774
 C          0.5929894419       -0.2312568991        0.4077585908
 H          0.1448351290        0.1456388172       -0.5007145653
 N          1.8012197122        1.8469962852        0.5898727369
 S          2.7432698961        1.8425233928       -0.7969347922
 O          3.0206166325        3.2323641528       -1.0826252604
 O          2.0834002269        1.0832444723       -1.8254894743
 C          4.2454812716        1.0229489417       -0.2883159960
 C          4.2715492280       -0.3570670440       -0.2466612781
 C          5.4108346675       -0.9905800696        0.2243469066
 C          6.4966365445       -0.2380532691        0.6452907211
 C          6.4552700894        1.1472399468        0.5963836843
 C          5.3174981602        1.7866989630        0.1308790358
 H          5.2408116044        2.8604371816        0.0712860265
 H          7.3023363109        1.7297959490        0.9209871036
 H          7.3807075926       -0.7352860132        1.0118126916
 H          5.4425200443       -2.0675052440        0.2608598822
 H          3.4120270558       -0.9104204706       -0.5889833719
 H          2.2261190901        2.4618442856        1.2713901894
 H          2.7356370238        0.7474117880        2.8376183371
 H          2.1691900057       -1.5071525577        3.6737848092
 H          0.6124795656       -2.9382863157        2.4098834324
 H         -1.0567772950       -3.1357810019        0.8058599438
 C         -0.0016550218       -3.1315289057       -1.0364828944
 C          1.1313967806       -2.5659556310       -1.8327229458
 C          1.3856222774       -3.6775244589       -0.8616642752
 H          1.6037065419       -4.6594189134       -1.2532742053
 H          1.9062318212       -3.4376984139        0.0534283589
 H          1.1477157651       -2.7793695291       -2.8906990398
 H          1.4702772527       -1.5665876936       -1.6050418598
 H         -0.7055065229       -3.7474227276       -1.5861804733
