  62
        -98.94234666
 C          1.9501007403        0.6452613697        0.0150214694
 C          2.9681083803        0.5293765197        0.9980805293
 C          4.0724819602       -0.3897715505        0.6968731695
 C          4.0565347701       -1.0747671706       -0.4605714804
 C          5.1383351000       -2.0058436408       -0.9238778303
 C          6.1875878300       -1.2648710311       -1.7643593304
 C          6.7010561502        0.0212485290       -1.1169263507
 H          5.8838294102        0.7441413691       -1.0630575908
 H          7.4579575502        0.4408027088       -1.7831414708
 C          7.3008380502       -0.1685892209        0.2833062793
 H          8.2358322202        0.3924679191        0.3427019292
 H          7.5437126901       -1.2197390309        0.4430770495
 C          6.4119729903        0.3253241694        1.4263608193
 H          6.0903562604        1.3500130794        1.2239135491
 H          7.0128588303        0.3456828495        2.3394337893
 C          5.1667013602       -0.5214403504        1.7184552795
 H          4.7391439002       -0.1695411102        2.6618976194
 H          5.4540007501       -1.5678358104        1.8414265096
 H          5.7412570000       -1.0088695512       -2.7281226205
 H          7.0240987299       -1.9418872412       -1.9468745304
 H          4.6821442299       -2.7871960209       -1.5342855802
 H          5.6098356199       -2.4652365107       -0.0571720102
 O          3.0580894301       -0.9573751507       -1.3694760004
 C          1.9823393801       -0.0998976405       -1.1643472105
 O          1.1542140101       -0.1174705406       -2.0944679405
 O          2.9537231004        1.1757831299        2.0796564592
 C          0.8238241204        1.6178970398        0.3201436792
 C         -0.3623102497        0.9234806201        0.9391139494
 C         -0.9583556696        1.4197019003        2.0925761193
 C         -2.0584311897        0.7874561605        2.6464455594
 C         -2.5883521498       -0.3477321895        2.0604391796
 C         -2.0006760499       -0.8504468198        0.9062616697
 C         -0.8981243998       -0.2152074800        0.3530578396
 H         -0.4508516299       -0.6083792602       -0.5479066804
 N         -2.5367380700       -1.9972248498        0.2932389199
 S         -4.1920573500       -2.0228230997        0.0378626299
 O         -4.8595753200       -2.3924830294        1.2613153300
 O         -4.3940569201       -2.9104104699       -1.0850986099
 C         -4.6142323799       -0.3454040697       -0.3977129503
 C         -5.3940668298        0.4139385405        0.4506562996
 C         -5.6632793696        1.7309040305        0.1138169494
 C         -5.1481890996        2.2633250702       -1.0576928607
 C         -4.3711332997        1.4858688400       -1.9027581406
 C         -4.0977195898        0.1688723600       -1.5706689104
 H         -3.4965736999       -0.4621591001       -2.2066909903
 H         -3.9690153697        1.9014653098       -2.8126321907
 H         -5.3512918495        3.2903154102       -1.3163581709
 H         -6.2689587095        2.3374563606        0.7675397593
 H         -5.7740093598       -0.0398818493        1.3512078397
 H         -2.0388598701       -2.2748946100       -0.5401939301
 H         -3.4396540798       -0.8580569594        2.4806759097
 H         -2.5075181996        1.1810884407        3.5451960394
 H         -0.5446728395        2.2992911203        2.5633463891
 H          1.2422632105        2.2923071499        1.0838152991
 C          0.4396826804        2.4781586797       -0.8770337509
 C         -0.8266165696        2.3053621997       -1.6547086008
 C         -0.6595617395        3.4923615698       -0.7576232510
 H         -0.5149642194        4.4650488097       -1.2023271012
 H         -1.2264730794        3.5026603700        0.1608911190
 H         -0.7759265096        2.4438999795       -2.7237872109
 H         -1.5116085697        1.5304655598       -1.3494838107
 H          1.3136229704        2.7741053195       -1.4494945610
