  62
        -98.93486952
 C         -2.2341288233        0.5735953546       -0.0435521938
 C         -3.5166818306        1.0610085495       -0.3806769149
 C         -4.6135285858        0.0752373206       -0.4366196764
 C         -4.3332732097       -1.2169481090       -0.1836465770
 C         -5.2828000940       -2.3848296586       -0.1430253797
 C         -6.1315608825       -2.4139764185        1.1383969869
 C         -6.7111439064       -1.0650165398        1.5559668577
 H         -7.1946126560       -1.1986508173        2.5273168008
 H         -5.8956374207       -0.3531352652        1.6960778967
 C         -7.7431062775       -0.4747945805        0.5979277858
 H         -8.5734970769       -1.1761232855        0.4900815223
 H         -8.1339690679        0.4339100626        1.0627682468
 C         -7.2299703657       -0.1106903741       -0.7968335365
 H         -7.9929387454        0.5134776705       -1.2710954398
 H         -7.1244092976       -0.9948763368       -1.4195588313
 C         -5.9373154249        0.6991593526       -0.8087642966
 H         -5.7940957784        1.1125691236       -1.8144624810
 H         -6.0536323017        1.5707173645       -0.1546350321
 H         -6.9400851545       -3.1337281004        0.9999892174
 H         -5.4977484499       -2.7706728345        1.9540729722
 H         -5.9141854810       -2.3837292245       -1.0265190793
 H         -4.6686605439       -3.2875559686       -0.1736882805
 O         -3.0742296869       -1.6438594731        0.1262090408
 C         -1.9997144787       -0.7775915123        0.2051512884
 O         -0.9169233994       -1.3227522902        0.4967503933
 H          1.6092719755        1.0341581822        0.5089180779
 C          1.3210530945        0.9106229997       -0.5204754859
 C          0.0124650136        1.1313577431       -0.9189770508
 C         -0.3161523309        0.9611727866       -2.2620810365
 C          0.6367520812        0.5588410576       -3.1763329540
 C          1.9359254819        0.3107196193       -2.7686461107
 C          2.2783546359        0.4890797330       -1.4341478997
 N          3.6085127959        0.2891575241       -1.0126673144
 S          3.9279744712       -0.5892834097        0.3950335698
 O          3.4674447354       -1.9535667556        0.2521110867
 O          3.4473625265        0.1424558646        1.5379254237
 C          5.7116114776       -0.5446243356        0.3677584832
 C          6.4223337723       -1.6647650316       -0.0181589598
 C          7.8067789418       -1.6016308033       -0.0536760470
 C          8.4529405679       -0.4248018198        0.2927240494
 C          7.7257845510        0.6916962275        0.6787401368
 C          6.3419493008        0.6344940033        0.7177051127
 H          5.7359766216        1.4729904887        1.0185036540
 H          8.2319249565        1.6042143957        0.9497053175
 H          9.5301103595       -0.3779820274        0.2641671002
 H          8.3744039597       -2.4691433234       -0.3498132373
 H          5.8769897171       -2.5596858989       -0.2719239816
 H          4.1792125613       -0.0872331102       -1.7597777481
 H          2.6788955808       -0.0178091125       -3.4800657861
 H          0.3660857189        0.4262013321       -4.2132060353
 H         -1.3358467083        1.1412418773       -2.5754013957
 C         -1.0737593130        1.5483576209        0.0405671476
 H         -1.4790376386        2.5148561938       -0.2947160646
 C         -0.6035931584        1.6889273287        1.4723573528
 C          0.0651326718        2.9517666483        1.9235965862
 C         -1.3239848360        2.6327823100        2.3860417299
 H         -1.4734018214        2.3405608848        3.4146696869
 H         -2.1453025889        3.1957605928        1.9670577978
 H          0.8754942969        2.8759408690        2.6328803911
 H          0.1881369098        3.7379094162        1.1941642495
 H         -0.2581430784        0.7505341950        1.8941146351
 O         -3.7455256681        2.2763923232       -0.6271558798
