  62
        -98.93916013
 C          2.2382221446        0.1223818770        0.2866845495
 C          3.2770143551        0.7086322607       -0.4778866781
 C          4.4162005756       -0.1671935422       -0.7861423389
 C          4.4109396215       -1.4502865674       -0.3850596619
 C          5.4849202523       -2.4698110665       -0.6514945530
 C          6.6522402006       -2.4217644582        0.3440692278
 C          7.5898667297       -1.2235406713        0.1902609051
 H          8.4736444325       -1.4286994958        0.7976554084
 H          7.9174586756       -1.1511140088       -0.8472090506
 C          6.9846627384        0.1149490364        0.6359637093
 H          6.1059752711       -0.0715323488        1.2578241881
 H          7.7059353865        0.6525677657        1.2555850438
 C          6.5900601855        1.0451977085       -0.5111252358
 H          6.1382513558        1.9436391795       -0.0832900444
 H          7.4835209966        1.3467245209       -1.0622638418
 C          5.5879510794        0.4365237539       -1.5005952312
 H          6.0796976219       -0.3101896781       -2.1232839597
 H          5.2100907764        1.2359649407       -2.1422502351
 H          6.2464779917       -2.4395373137        1.3582839185
 H          7.2367907585       -3.3340351591        0.2042835492
 H          5.0077158176       -3.4492329363       -0.5756116599
 H          5.8646795825       -2.3455871308       -1.6659710868
 O          3.3790726337       -1.9878477652        0.3192479942
 C          2.2920621253       -1.2160954445        0.6893548950
 O          1.4448711805       -1.8296617859        1.3712479844
 O          3.2800741084        1.8966145958       -0.8949286028
 C          0.9968019393        0.8807033373        0.7287100453
 C         -0.0257325688        0.9692329705       -0.3794506410
 C          0.2167318458        1.6963402584       -1.5405534592
 C         -0.7512411026        1.7846523650       -2.5238086041
 C         -1.9806495424        1.1704293161       -2.3627563022
 C         -2.2280150891        0.4324767862       -1.2112209253
 C         -1.2482545420        0.3301437101       -0.2335599153
 H         -1.4506826283       -0.2562542491        0.6514916340
 N         -3.4554990825       -0.2236067152       -1.0290082234
 S         -4.0849947677       -0.3285272851        0.5334251370
 O         -3.8860071176        0.9213622437        1.2318171547
 O         -3.5568138462       -1.5080765450        1.1719182289
 C         -5.8152250300       -0.5631832053        0.1707046335
 C         -6.6584513500        0.5320123608        0.1646439606
 C         -7.9958221184        0.3466265514       -0.1487516763
 C         -8.4640018619       -0.9230472265       -0.4520658599
 C         -7.6058683004       -2.0127859675       -0.4406634407
 C         -6.2677017631       -1.8347618641       -0.1272309012
 H         -5.5655647288       -2.6517624510       -0.0962035607
 H         -7.9739636330       -2.9989061681       -0.6736784753
 H         -9.5049714543       -1.0649542241       -0.6958664819
 H         -8.6660078650        1.1910536877       -0.1546666535
 H         -6.2513318301        1.4982671492        0.4157271003
 H         -4.1557287966        0.0511299969       -1.7041693669
 H         -2.7403945987        1.2531154671       -3.1251841954
 H         -0.5510682481        2.3502268949       -3.4213733027
 H          1.1728036968        2.1803863488       -1.6656642068
 H          0.5527193399        0.2778927927        1.5334673630
 C          1.2993123675        2.2613935376        1.2806414771
 C          0.2526082547        2.9490186304        2.1026218141
 C          1.5011164049        2.4353665453        2.7539771866
 H          2.2373793354        3.1487526607        3.0929046574
 H          1.4259114741        1.5553405696        3.3768815551
 H          0.1319193083        4.0159930501        1.9942108950
 H         -0.6727364110        2.4190404573        2.2789918070
 H          1.9016319501        2.8686814567        0.6183702994
