  62
        -98.94595991
 C          1.0549389677        1.2792110721       -0.0985573684
 C          1.7544804700        0.6174970883        0.9447367044
 C          2.5782966547       -0.5313919921        0.5554344678
 C          2.6010334874       -0.9254723754       -0.7304151123
 C          3.3467900619       -2.1108352191       -1.2808878166
 C          4.8175703832       -1.8244309316       -1.6132004225
 C          5.7361259063       -1.6584917657       -0.4018363369
 H          5.6156730590       -2.5141000518        0.2633100454
 H          6.7623654441       -1.6771505030       -0.7739273231
 C          5.5185167530       -0.3571667428        0.3829296824
 H          6.4849521717        0.1051126482        0.5960517202
 H          4.9559102004        0.3487190157       -0.2325998529
 C          4.7968590058       -0.5350206501        1.7187040933
 H          5.4146684126       -1.1342328553        2.3910239577
 H          4.6660646357        0.4514380098        2.1704723704
 C          3.4147858278       -1.1929593638        1.6098054868
 H          3.5227808723       -2.2574112708        1.4002800791
 H          2.9038105340       -1.0687020194        2.5678973481
 H          4.8663056494       -0.9270057281       -2.2345164342
 H          5.1854576021       -2.6616483197       -2.2109320722
 H          3.2866498600       -2.9413345982       -0.5765572183
 H          2.8341743688       -2.3992887689       -2.2015847594
 O          1.9049882131       -0.2789194991       -1.7013731565
 C          1.1374500707        0.8495286037       -1.4243401978
 O          0.6073192226        1.3430011802       -2.4381881215
 H         -1.4589914151        0.8844947173       -1.1624784407
 C         -1.9223203552        1.2423198004       -0.2560928764
 C         -1.2175065416        2.0609253730        0.6147535555
 C         -1.8537705593        2.5201181154        1.7627590172
 C         -3.1651696180        2.1727059072        2.0300855127
 C         -3.8593777634        1.3431514944        1.1683667135
 C         -3.2314361764        0.8733932937        0.0208003157
 N         -3.9068696098        0.0130640147       -0.8638582713
 S         -3.1262949284       -1.3870119751       -1.3479718032
 O         -2.1526549624       -1.1036948624       -2.3690299195
 O         -4.2008514578       -2.2805148141       -1.7275666294
 C         -2.3338970589       -1.9874314849        0.1325441379
 C         -0.9693761614       -1.8563904065        0.2827158151
 C         -0.3807242494       -2.2805267517        1.4635168813
 C         -1.1652148047       -2.8216372571        2.4697225527
 C         -2.5358710826       -2.9514386462        2.3024574237
 C         -3.1288285910       -2.5285889764        1.1245828900
 H         -4.1882677455       -2.6242075527        0.9505676999
 H         -3.1410205561       -3.3772828729        3.0863284263
 H         -0.7013085901       -3.1443560740        3.3882704193
 H          0.6844256307       -2.1710704863        1.5911811491
 H         -0.3913789548       -1.4275460256       -0.5211035391
 H         -4.8572704355       -0.1931468898       -0.5892626504
 H         -4.8794415067        1.0598963890        1.3779449549
 H         -3.6476161704        2.5394232417        2.9228401360
 H         -1.3085720129        3.1462186586        2.4527832520
 C          0.2083619014        2.4667553306        0.3196613632
 H          0.6509997204        2.8176795575        1.2625623262
 C          0.2159753603        3.6187023851       -0.6666620318
 C         -0.0265822674        5.0113139617       -0.1702703190
 C          1.3404271573        4.6080727823       -0.6338434770
 H          1.7093348075        4.9967508464       -1.5710294243
 H          2.1097644021        4.4642052159        0.1109867175
 H         -0.6021584713        5.6825728509       -0.7887537434
 H         -0.1793712956        5.1489800808        0.8891289092
 H         -0.1833230817        3.3525130135       -1.6369411677
 O          1.6931781285        0.9757425169        2.1505673294
