  62
        -98.93850573
 C         -2.2328943214       -0.9210787248       -0.4648040738
 C         -1.5175996575        0.1581361177       -1.0434198354
 C         -2.0483538239        1.5085546916       -0.7956140198
 C         -3.1480998590        1.6678620715       -0.0418888620
 C         -3.7579621242        2.9855950393        0.3359267057
 C         -3.1924695859        3.5032024473        1.6656234371
 C         -1.6654833250        3.4777012999        1.7468963055
 H         -1.3852509918        3.9072281545        2.7117400686
 H         -1.3154913356        2.4419554695        1.7501531865
 C         -0.9530855070        4.2417433154        0.6221392071
 H         -1.6470644942        4.9362810696        0.1459663379
 H         -0.1475222116        4.8344150396        1.0609177492
 C         -0.3167433577        3.3421754438       -0.4391795875
 H          0.2774933136        2.5704726061        0.0574816407
 H          0.3654992131        3.9507297750       -1.0393532721
 C         -1.2990251424        2.6619594655       -1.4019612877
 H         -1.9934427070        3.4027852168       -1.8041933664
 H         -0.7207149980        2.2473969980       -2.2324200825
 H         -3.5476897224        4.5246672989        1.8159838945
 H         -3.5868609339        2.8838055311        2.4747075910
 H         -3.5696099674        3.7078612843       -0.4561733444
 H         -4.8356557903        2.8470332430        0.4405118340
 O         -3.8151392595        0.6185950235        0.5006627014
 C         -3.3713112133       -0.6765878950        0.3188257530
 O         -4.0799944922       -1.5273997035        0.8978490319
 H          0.5417512613       -1.1084319733       -0.2406288213
 C          0.4614897493       -1.9776237335        0.3857136699
 C         -0.6859710361       -2.7545773619        0.3477894365
 C         -0.7485560639       -3.8898040538        1.1503351871
 C          0.3033937319       -4.2238725656        1.9829729916
 C          1.4227188148       -3.4146564293        2.0565944598
 C          1.4976678225       -2.2788347858        1.2579615259
 N          2.6204353078       -1.4405837982        1.3193772756
 S          2.4989114368        0.2388637103        1.3366533271
 O          3.3356497207        0.6609432863        2.4443738954
 O          1.1248971061        0.6709672711        1.3815623487
 C          3.3071503946        0.7147297536       -0.1783450157
 C          4.6735766392        0.9208376756       -0.1327090062
 C          5.3444230372        1.2597635195       -1.2956554634
 C          4.6412706533        1.3852521013       -2.4844757545
 C          3.2717628007        1.1763354866       -2.5135912693
 C          2.5931171266        0.8363889687       -1.3525045443
 H          1.5271419130        0.6701120378       -1.3608993070
 H          2.7197993421        1.2715740012       -3.4351713669
 H          5.1618391295        1.6479378115       -3.3920371839
 H          6.4096832625        1.4244985400       -1.2723567254
 H          5.1776408645        0.8250194673        0.8148971600
 H          3.3127220782       -1.7373182554        1.9920931580
 H          2.2318249086       -3.6559332122        2.7298594789
 H          0.2423540660       -5.1084357946        2.5989736151
 H         -1.6384826340       -4.5024758448        1.1290978893
 C         -1.8652184666       -2.3984413766       -0.5325182972
 H         -2.7411316719       -2.8900312297       -0.0806019572
 C         -1.7089818770       -3.0625392194       -1.8992272131
 C         -2.2112014979       -2.4551249807       -3.1721238272
 C         -0.7393782456       -2.6473692979       -2.9607801634
 H         -0.2360291258       -3.4256905977       -3.5157753690
 H         -0.1476050310       -1.7653472964       -2.7847753730
 H         -2.5924112743       -1.4452822740       -3.1244779193
 H         -2.7311446646       -3.0873548851       -3.8769078123
 H         -1.8518854277       -4.1360620761       -1.8054913246
 O         -0.4813626054        0.0457151795       -1.7490910184
