  62
        -98.94463099
 C         -2.0354753958       -0.3017724962       -0.1647737074
 C         -3.0207968432       -0.8695017289        0.6810195909
 C         -4.2352318196       -0.0701173966        0.8853528947
 C         -4.3286502164        1.1416519448        0.3079335382
 C         -5.5253400942        2.0428876519        0.3969816815
 C         -6.5017388396        1.7878834156       -0.7598676837
 C         -6.8411865583        0.3119664110       -0.9684090876
 H         -7.5598608818        0.2568786591       -1.7889605417
 H         -5.9424830393       -0.2179259336       -1.2921802660
 C         -7.4230580429       -0.3870316714        0.2682444262
 H         -7.7879850563        0.3571518913        0.9770800661
 H         -8.2809561818       -0.9879526619       -0.0408212801
 C         -6.4514260288       -1.3306975906        0.9794180791
 H         -7.0216909834       -1.9297702102        1.6943004331
 H         -6.0120983677       -2.0189683033        0.2530105693
 C         -5.3125412928       -0.6558483652        1.7542784117
 H         -4.8232389122       -1.4230452631        2.3614185055
 H         -5.7222101507        0.1023155101        2.4248043280
 H         -7.4174026660        2.3504505809       -0.5686021658
 H         -6.0545865782        2.1698522067       -1.6805981211
 H         -5.1808331545        3.0773332431        0.3488678105
 H         -6.0250819718        1.8811943575        1.3501598712
 O         -3.3489553898        1.6687514436       -0.4688052509
 C         -2.1830031185        0.9633920002       -0.7334245727
 O         -1.3839786310        1.5646527579       -1.4762641591
 O         -2.8892246253       -1.9920691677        1.2375211080
 C         -0.7618013186       -1.0932058031       -0.4124983618
 C          0.3866983093       -0.3766366576        0.2521099444
 C          0.5257144404       -0.4639502480        1.6348541919
 C          1.5436673206        0.2050708678        2.2875849404
 C          2.4453135131        0.9765894534        1.5751864702
 C          2.3138917497        1.0704999458        0.1963941482
 C          1.2970758895        0.3885242156       -0.4594780385
 H          1.2004099798        0.4834256300       -1.5292139420
 N          3.2360722930        1.8428271430       -0.5314477828
 S          4.8595949138        1.5791314498       -0.2237044434
 O          5.2565174002        2.3097940396        0.9542177025
 O          5.5458793248        1.9337739892       -1.4461639537
 C          4.9806484325       -0.1747292772        0.0842231457
 C          5.3478705818       -0.6325256861        1.3328986954
 C          5.3809591200       -1.9987358570        1.5627535079
 C          5.0430386726       -2.8783089146        0.5463579987
 C          4.6798342953       -2.4027804620       -0.7045612769
 C          4.6458576351       -1.0383360645       -0.9401052008
 H          4.3726258542       -0.6360725837       -1.9023256420
 H          4.4186357521       -3.0890090354       -1.4941771393
 H          5.0632815313       -3.9412174791        0.7285550240
 H          5.6646893225       -2.3714878259        2.5337378430
 H          5.6000274124        0.0860082252        2.0955543921
 H          3.0463165669        1.8773696274       -1.5220656374
 H          3.2408737595        1.5142331283        2.0652604992
 H          1.6373041682        0.1280403964        3.3600746943
 H         -0.1845732676       -1.0590730445        2.1916845544
 H         -0.9114492126       -2.0485671097        0.1086621658
 C         -0.5420868094       -1.3697422020       -1.8849018360
 C          0.4643344425       -2.4028333594       -2.2933603571
 C         -0.9997556285       -2.6744094232       -2.4613367592
 H         -1.4136154258       -2.6789622868       -3.4587322624
 H         -1.4703400126       -3.3789258815       -1.7914280612
 H          1.0570422459       -2.2250392545       -3.1777233623
 H          0.9895890212       -2.9207080445       -1.5053466095
 H         -0.6504396893       -0.4892995928       -2.5071448997
