  62
        -98.93004457
 C         -2.4415319938       -1.0259877704        0.5194551412
 C         -2.6273812712        0.2846248914        1.0243796898
 C         -3.9445578767        0.9102770440        0.8137051413
 C         -4.9002984159        0.2220909465        0.1620709871
 C         -6.3403765919        0.5658313750       -0.1579623532
 C         -6.8569291105        1.9922127978        0.0077139718
 C         -6.2771549799        2.9982473612       -0.9861753970
 H         -6.6738986818        2.7722707427       -1.9790873539
 H         -6.6251816648        3.9951853357       -0.7076959730
 C         -4.7543722293        3.0154466700       -1.0937622963
 H         -4.3995654663        2.0474508217       -1.4535280147
 H         -4.4801384170        3.7585677171       -1.8474798598
 C         -4.0113220020        3.3666520619        0.1936506009
 H         -4.3765762974        4.3197536168        0.5813479239
 H         -2.9543580162        3.4913058405       -0.0585618101
 C         -4.0963440922        2.3175525764        1.3153865616
 H         -3.2607572238        2.4885177172        2.0008039969
 H         -5.0145979305        2.4250184785        1.8881802201
 H         -7.9374117959        1.9534346422       -0.1549125553
 H         -6.7043858877        2.3308298744        1.0282031049
 H         -6.5013909018        0.2438579769       -1.1916345519
 H         -6.9468325036       -0.0976914616        0.4683018918
 O         -4.6773310303       -1.0389952317       -0.3060734476
 C         -3.4601405952       -1.6918156437       -0.1618446228
 O         -3.4422698984       -2.8235671548       -0.6766856151
 H          1.4754308410       -0.8192457975        0.9111596625
 C          1.1620886153       -0.9771269233       -0.1097826526
 C         -0.1338730859       -1.3928234952       -0.3804686622
 C         -0.5205538701       -1.5662085284       -1.7056152030
 C          0.3735964081       -1.3218104523       -2.7318275754
 C          1.6640896353       -0.9050841466       -2.4583898442
 C          2.0646615351       -0.7376772238       -1.1371940829
 N          3.3888162999       -0.3735770171       -0.8426688267
 S          3.7364537783        0.5646340231        0.5159719877
 O          3.6137644523       -0.2587249896        1.6921384623
 O          2.9615567419        1.7850273298        0.4951319871
 C          5.4570833486        0.9144389000        0.2072840998
 C          5.8281284213        2.1517177484       -0.2833603847
 C          7.1680739960        2.3958341581       -0.5418366464
 C          8.1079788898        1.4031685042       -0.3093909118
 C          7.7202666813        0.1662671227        0.1846247176
 C          6.3828601408       -0.0837216315        0.4468399736
 H          6.0361230573       -1.0251372820        0.8397397769
 H          8.4542231485       -0.6020911484        0.3666310289
 H          9.1497466657        1.5956085384       -0.5117460746
 H          7.4729212452        3.3574415250       -0.9221978898
 H          5.0632154716        2.8950195383       -0.4416053144
 H          3.8870171784       -0.0325381917       -1.6538720024
 H          2.3591776047       -0.7149242988       -3.2619740380
 H          0.0609907891       -1.4559524726       -3.7565412248
 H         -1.5244448096       -1.9006631648       -1.9200261597
 C         -1.0856162066       -1.6639573847        0.7573413643
 H         -0.6830835713       -1.1468121070        1.6442019587
 C         -1.1719935959       -3.1457613905        1.0994309089
 C         -0.7127245939       -4.2332950518        0.1801211945
 C          0.0762014469       -3.9167872426        1.4128251975
 H          0.0581573154       -4.6152163572        2.2357374574
 H          1.0191845281       -3.4046821688        1.2887800054
 H         -1.2959764998       -5.1406785135        0.1515602522
 H         -0.3018401592       -3.9512321088       -0.7762153420
 H         -2.0449894752       -3.3675250527        1.7052185749
 O         -1.7254945488        0.9079661454        1.6497367974
