  62
        -98.94703213
 C          1.5191820088        1.0665530256        0.0838535027
 C          2.5321719282        0.6089513721        0.9566974346
 C          3.1052773280       -0.7055703335        0.6429981095
 C          2.6142941126       -1.4051699541       -0.3968971872
 C          3.1329092568       -2.7379350602       -0.8522438901
 C          4.2329833163       -2.5771302902       -1.9109514276
 C          5.3251702322       -1.5818130369       -1.5191456221
 H          6.0613765838       -1.5727713792       -2.3256083370
 H          4.8915556080       -0.5806420767       -1.4666831254
 C          6.0257377627       -1.8995762068       -0.1908450167
 H          7.1028742431       -1.7813369676       -0.3255241676
 H          5.8453828725       -2.9395284965        0.0835848995
 C          5.6207882758       -0.9922390354        0.9722640285
 H          6.3234576423       -1.1573379103        1.7933514635
 H          5.7108484447        0.0538968325        0.6692539372
 C          4.2085144280       -1.2111572831        1.5300748389
 H          4.0620114623       -2.2685879378        1.7616615032
 H          4.1270922702       -0.6429466894        2.4617698661
 H          3.7713265764       -2.2327667606       -2.8391201058
 H          4.6785933104       -3.5562520148       -2.0954929250
 H          3.5164697548       -3.2844797877        0.0074014992
 H          2.2999177038       -3.2981679265       -1.2809612043
 O          1.6120008040       -0.9514167541       -1.1890609181
 C          1.0290286170        0.2832945590       -0.9622757284
 O          0.1091822106        0.5721798525       -1.7512272169
 H         -0.3056609794        0.5634422705        1.8321015903
 C         -1.0399228391        1.1783280384        1.3252849210
 C         -0.6132269598        2.2254842063        0.5170582175
 C         -1.5745439363        3.0013783841       -0.1173716851
 C         -2.9208596988        2.7076778718        0.0197816841
 C         -3.3347747772        1.6239511823        0.7728052651
 C         -2.3812063397        0.8599071816        1.4310917248
 N         -2.8026044192       -0.3126249723        2.1282588796
 S         -2.5639274377       -1.6701516003        1.1453568049
 O         -3.0875391537       -2.7933732531        1.8952533772
 O         -1.1776400770       -1.7946289681        0.7444039278
 C         -3.6111470779       -1.3106811208       -0.2427606133
 C         -3.0831252052       -0.6814935428       -1.3527237133
 C         -3.9353499987       -0.3580233180       -2.3978991723
 C         -5.2850464453       -0.6633481430       -2.3142521245
 C         -5.7970287614       -1.2955555308       -1.1906807987
 C         -4.9538392441       -1.6204532144       -0.1408851535
 H         -5.3009885159       -2.1120046314        0.7530231674
 H         -6.8471196896       -1.5315904860       -1.1288079049
 H         -5.9412662059       -0.4056995230       -3.1306251918
 H         -3.5332325233        0.1372999412       -3.2670367097
 H         -2.0291765937       -0.4477741100       -1.3885422873
 H         -2.2818637851       -0.4608772811        2.9837643992
 H         -4.3759708619        1.3583674146        0.8552515671
 H         -3.6540386022        3.3150729353       -0.4875644873
 H         -1.2667261023        3.8275265504       -0.7372867457
 C          0.8719981004        2.4165861223        0.3421373882
 H          1.2982345153        2.7719581269        1.2923047329
 C          1.2328344853        3.3958213547       -0.7550842120
 C          1.3074896283        4.8646087677       -0.4656124534
 C          2.5634834733        4.0826026113       -0.7019627591
 H          3.1028981812        4.2340633748       -1.6248533463
 H          3.1994563641        3.8631785009        0.1433780679
 H          0.9872034526        5.5574301220       -1.2288569209
 H          1.0949584741        5.1869260512        0.5423823166
 H          0.8713555807        3.0796686549       -1.7272973114
 O          2.9318634600        1.2671621517        1.9575459638
