  62
        -98.94448536
 C         -2.5835806396       -1.0966356694        0.2075925403
 C         -2.5794239495       -0.1815959598       -0.8729711300
 C         -3.1834634494        1.1326641404       -0.6073332904
 C         -3.7063060893        1.3943622008        0.6034115595
 C         -4.2967496192        2.7086716510        1.0220115291
 C         -3.2388469891        3.6164757912        1.6647174987
 C         -1.9484250891        3.7417967808        0.8537765586
 H         -1.2968456190        4.4389262109        1.3854873483
 H         -1.4314460192        2.7785843307        0.8380002289
 C         -2.1462449191        4.2305924703       -0.5877179916
 H         -1.3857393491        4.9828669701       -0.8075316119
 H         -3.1201261791        4.7119741103       -0.6871606517
 C         -2.0081108093        3.1390303399       -1.6507459912
 H         -1.0766330693        2.5884341799       -1.4858079811
 H         -1.9303466493        3.6237881896       -2.6280634414
 C         -3.1659994194        2.1349597900       -1.7267779708
 H         -4.1148441093        2.6724514700       -1.7802829509
 H         -3.0454491095        1.5569262497       -2.6476866006
 H         -3.6758524290        4.6065753012        1.8070285684
 H         -2.9848812890        3.2116007315        2.6469131888
 H         -4.7316698292        3.1987596408        0.1532279189
 H         -5.0847505692        2.5135800614        1.7513543792
 O         -3.7165556993        0.4851221712        1.6101171898
 C         -3.1411434495       -0.7616571689        1.4466706602
 O         -3.1972454895       -1.4845802786        2.4612196505
 O         -2.1041474496       -0.4227673702       -2.0166277900
 C         -1.9435534997       -2.4776091295        0.1402373307
 C         -0.4516956697       -2.3293757896        0.3199528506
 C          0.1800462404       -2.7673440092        1.4780193407
 C          1.5345770604       -2.5535109793        1.6665721306
 C          2.2819631704       -1.8826409897        0.7143620603
 C          1.6565286004       -1.4357963600       -0.4414245598
 C          0.3081773003       -1.6795824500       -0.6425079497
 H         -0.1708060397       -1.3118381102       -1.5378777998
 N          2.3980178404       -0.6887932804       -1.3894227001
 S          2.7564730506        0.8714517097       -0.8529730507
 O          1.7545976707        1.3536007802        0.0717706092
 O          2.9646657206        1.6603090893       -2.0478928109
 C          4.3126641506        0.6573418299       -0.0157135607
 C          4.3942584207        0.8420228604        1.3502119593
 C          5.6146028407        0.6502668005        1.9797137693
 C          6.7245031006        0.2793548401        1.2359250093
 C          6.6261080605        0.1003873296       -0.1361122606
 C          5.4094599905        0.2908504995       -0.7713051206
 H          5.2872292104        0.1682886192       -1.8344939606
 H          7.4916380705       -0.1871057206       -0.7109032505
 H          7.6719273506        0.1289811202        1.7289753593
 H          5.6927981408        0.7886676008        3.0461343592
 H          3.5027889407        1.1249878506        1.8870552692
 H          1.9108539004       -0.6129570507       -2.2731725001
 H          3.3336607504       -1.6973592297        0.8615760702
 H          2.0106275604       -2.9014535590        2.5705648907
 H         -0.4057483796       -3.2567269789        2.2427535909
 H         -2.3344891197       -3.0288376192        1.0055990109
 C         -2.2931144098       -3.2480488799       -1.1169032890
 C         -2.1318394500       -4.7374952599       -1.1201811685
 C         -3.5025253199       -4.1316221798       -1.1202036086
 H         -4.0947378500       -4.1887748900       -2.0211112086
 H         -4.0847248499       -4.1848583194       -0.2116343886
 H         -1.7805284300       -5.2147458102       -2.0219937183
 H         -1.7850405500       -5.2042646696       -0.2106991783
 H         -2.0694066398       -2.7137141702       -2.0303628592
