  62
        -98.93778807
 C         -2.3109532011       -1.3550823556       -0.1209062640
 C         -3.2048184104       -0.8266368901        0.8476003231
 C         -4.0492313584        0.2985607572        0.4243263313
 C         -3.9398955737        0.7577391233       -0.8351292223
 C         -4.6633768389        1.9476810256       -1.3981795014
 C         -3.9890271600        3.2479957582       -0.9155940296
 C         -4.8575109806        4.1052502262        0.0059320311
 H         -4.2096423954        4.8634484166        0.4509993145
 H         -5.6067789637        4.6239648438       -0.5958033295
 C         -5.5910284426        3.3567597318        1.1230683593
 H         -5.9406786496        4.1100461455        1.8321525011
 H         -6.4813625628        2.8739447518        0.7176473379
 C         -4.7675632751        2.3094325513        1.8838110062
 H         -5.0376899510        2.3667572846        2.9401595239
 H         -3.7025111039        2.5338003512        1.8161571590
 C         -5.0108767196        0.8556352653        1.4370067174
 H         -4.9105192351        0.2009048086        2.3075020533
 H         -6.0337445484        0.7540833454        1.0643578962
 H         -3.7059649889        3.8530051387       -1.7785159004
 H         -3.0606008789        2.9836415782       -0.4036575711
 H         -5.7074429083        1.9216915493       -1.0943186089
 H         -4.6125408775        1.8748495609       -2.4847712069
 O         -3.0795094570        0.2232772430       -1.7378904769
 C         -2.2381260279       -0.8302155208       -1.4105382020
 O         -1.5057778443       -1.1863106763       -2.3565166175
 O         -3.2949653728       -1.2848250837        2.0177483534
 C         -1.4157304789       -2.4995025276        0.3300990995
 C         -0.0402470553       -1.9658380383        0.6516075491
 C          0.3822053279       -1.8406556063        1.9702467532
 C          1.6206958746       -1.2983526659        2.2653911690
 C          2.4589382766       -0.8639996605        1.2541081800
 C          2.0404155764       -0.9739212209       -0.0653342047
 C          0.8067532229       -1.5343394166       -0.3596164078
 H          0.4800692564       -1.5949278756       -1.3870270552
 N          2.8767038767       -0.5091547835       -1.1009097571
 S          3.3243074521        1.1102804791       -1.0131395175
 O          2.3356775042        1.8967214112       -0.3097802242
 O          3.6133868691        1.5067306932       -2.3742598066
 C          4.8465949382        1.0714027689       -0.0892077477
 C          4.9798749573        1.8321336601        1.0556989590
 C          6.1775304417        1.7890119084        1.7528215675
 C          7.2145187961        0.9908504667        1.2947618337
 C          7.0652161977        0.2344978118        0.1416064818
 C          5.8713846640        0.2741029418       -0.5607043093
 H          5.7140875518       -0.2946186347       -1.4618717477
 H          7.8737271759       -0.3851373186       -0.2113839021
 H          8.1445339430        0.9579921836        1.8399580524
 H          6.2951027027        2.3763524180        2.6492961835
 H          4.1431467434        2.4317126206        1.3771690356
 H          2.5025725139       -0.7072576262       -2.0191047385
 H          3.4210840389       -0.4321258350        1.4767438318
 H          1.9350562839       -1.2082278520        3.2939607719
 H         -0.2792743875       -2.1528115306        2.7653783455
 H         -1.8626615292       -2.8582606787        1.2667578647
 C         -1.3674889171       -3.6534185358       -0.6504545188
 C         -0.9200012245       -4.9982886453       -0.1643085836
 C         -2.3586229661       -4.7686729026       -0.5152351665
 H         -2.7513854154       -5.2187939252       -1.4145635030
 H         -3.0768049052       -4.7038863087        0.2890956008
 H         -0.3214778776       -5.6098603516       -0.8216883764
 H         -0.6623559561       -5.0905565194        0.8798100484
 H         -1.0887178058       -3.3607529159       -1.6541285814
