  62
        -98.94165955
 C         -1.7623227593       -1.3187414195        0.2939358849
 C         -1.3804217259       -0.2229733267       -0.5136567688
 C         -2.0363177552        1.0670813253       -0.2346181601
 C         -2.9474329053        1.1297477426        0.7535265329
 C         -3.7699484477        2.3211324644        1.1611982721
 C         -4.9266751940        2.6065086762        0.1833873766
 C         -4.6032869688        2.3895137307       -1.2939860111
 H         -4.2071474407        1.3812656272       -1.4287431457
 H         -5.5420944209        2.4460247359       -1.8512129606
 C         -3.6372514188        3.4008525137       -1.9069071742
 H         -3.4817760939        3.1175290353       -2.9507878186
 H         -4.1028476984        4.3892493412       -1.8954071274
 C         -2.2724632194        3.5127786774       -1.2282822047
 H         -2.3651660167        4.0069491584       -0.2646977314
 H         -1.6482998563        4.1617223395       -1.8501085052
 C         -1.5090510631        2.1990734471       -1.0805940405
 H         -0.5135694497        2.4205351312       -0.6722447331
 H         -1.3380098773        1.7713572596       -2.0748076353
 H         -5.2656883668        3.6319565945        0.3375061712
 H         -5.7505916913        1.9365175881        0.4397728534
 H         -4.1913005721        2.0960861245        2.1435411782
 H         -3.1212150002        3.1859131421        1.2723770128
 O         -3.2877098141        0.0455323823        1.5085701456
 C         -2.6851515837       -1.1845033818        1.3273993521
 O         -3.0474474676       -2.0659424075        2.1361349307
 O         -0.5304707035       -0.3174405535       -1.4379451053
 C         -1.0904874305       -2.6675603712        0.0994060980
 C          0.4059573219       -2.4774953226        0.1353335366
 C          1.2779094434       -3.0403482974       -0.7876373104
 C          2.6308698185       -2.7486752044       -0.7487638448
 C          3.1385510978       -1.8756394852        0.1961478546
 C          2.2781178713       -1.3315113860        1.1396686900
 C          0.9336256242       -1.6551429006        1.1240611642
 H          0.2703000453       -1.2104077880        1.8570216729
 N          2.7902060998       -0.3639392034        2.0557913206
 S          2.4513434618        1.1963152712        1.4930739500
 O          3.0957724174        2.0965744656        2.4273496413
 O          1.0269888847        1.4024127619        1.3317939299
 C          3.2886380968        1.2285581142       -0.0726201986
 C          2.6068053981        0.8756497677       -1.2203508727
 C          3.2981531510        0.8616719052       -2.4224342483
 C          4.6436691963        1.1936911687       -2.4549053255
 C          5.3117538124        1.5444611236       -1.2909069262
 C          4.6299583913        1.5598545094       -0.0852745418
 H          5.1018238423        1.8262491458        0.8462447016
 H          6.3582764944        1.8019053025       -1.3191581126
 H          5.1744458609        1.1778253287       -3.3938392606
 H          2.7757562594        0.5835375970       -3.3235742454
 H          1.5610025889        0.6109790477       -1.1668496319
 H          2.3776878145       -0.4480556388        2.9764845547
 H          4.1820225353       -1.6067160746        0.2127548993
 H          3.2926914906       -3.1865097305       -1.4796615672
 H          0.8923948817       -3.6939218958       -1.5530024704
 H         -1.3908535059       -3.2871608336        0.9572899430
 C         -1.5841693355       -3.3203782187       -1.1752709483
 C         -1.6344482886       -4.8136636327       -1.2915742322
 C         -2.9040586067       -4.0288682229       -1.1596621659
 H         -3.5487575189       -3.9374471801       -2.0208351856
 H         -3.4355568572       -4.0618207912       -0.2194532642
 H         -1.4114059624       -5.2646833168       -2.2466162661
 H         -1.3083133526       -5.3931767368       -0.4412566267
 H         -1.3366287937       -2.7427486733       -2.0585415779
