  62
        -98.93921792
 C         -2.3084006916       -0.8970519893        0.6504584837
 C         -3.3989803240       -0.9161968796       -0.2538767946
 C         -4.4703325265        0.0524218171        0.0174843270
 C         -4.3901595559        0.8674271364        1.0836369414
 C         -5.4106253821        1.8930205826        1.4968598346
 C         -5.2756292272        3.2362882511        0.7664853538
 C         -5.7103844895        3.2270085759       -0.6996580810
 H         -6.7116765446        2.8024263592       -0.7774319499
 H         -5.7719194515        4.2684628421       -1.0215209601
 C         -4.7559327098        2.4760141157       -1.6387235544
 H         -4.5758060153        3.0778876497       -2.5322943312
 H         -3.7902080179        2.3403989207       -1.1457323544
 C         -5.2679334949        1.1134369711       -2.1058046842
 H         -6.1625070523        1.2482628078       -2.7177254797
 H         -4.4971585996        0.6541769465       -2.7297616215
 C         -5.5974644640        0.1394970784       -0.9672294124
 H         -6.5171899875        0.4412333801       -0.4670317849
 H         -5.7405088728       -0.8548329412       -1.3967910248
 H         -5.8930513281        3.9611964021        1.3020200818
 H         -4.2370864695        3.5682689830        0.8368330903
 H         -6.4137347086        1.4936138307        1.3450630621
 H         -5.2621876082        2.0651477754        2.5650734534
 O         -3.3409861752        0.8336560020        1.9488681258
 C         -2.2763010106       -0.0265303695        1.7440115771
 O         -1.3769616048        0.0668543734        2.6053327849
 O         -3.5003635177       -1.6945303837       -1.2373656835
 C         -1.0950633625       -1.8005905692        0.4930494380
 C         -0.1941086861       -1.2800951800       -0.6022454117
 C         -0.4881445725       -1.4653278396       -1.9493236190
 C          0.3636194849       -0.9776180032       -2.9234323836
 C          1.5285258632       -0.3161176057       -2.5780898427
 C          1.8241475219       -0.1132997673       -1.2349184226
 C          0.9597204900       -0.5887304065       -0.2590817165
 H          1.1959349643       -0.4163090721        0.7817431116
 N          2.9844739629        0.5801790109       -0.8543765102
 S          3.7802833974        0.1012942354        0.5550937562
 O          3.8133911707       -1.3418224908        0.6367725770
 O          3.2012544281        0.7945310706        1.6783472656
 C          5.4159930823        0.7359741274        0.2347957388
 C          5.6837319321        2.0623006992        0.5166939181
 C          6.9454663170        2.5642844100        0.2398840315
 C          7.9126701582        1.7369962504       -0.3116438420
 C          7.6299096502        0.4075974110       -0.5871468553
 C          6.3696689612       -0.1006729115       -0.3138742164
 H          6.1071670179       -1.1292991110       -0.5022051641
 H          8.3848123476       -0.2339719709       -1.0121966666
 H          8.8939866339        2.1303364331       -0.5249737656
 H          7.1696783386        3.5963869864        0.4559615205
 H          4.9034055751        2.6630322316        0.9544002807
 H          3.6280004554        0.7217509038       -1.6211150103
 H          2.1997172744        0.0501610438       -3.3401588945
 H          0.1235385973       -1.1259503077       -3.9654895960
 H         -1.3991627830       -1.9724318328       -2.2239732173
 H         -0.5405032287       -1.7186289156        1.4383990914
 C         -1.4606059687       -3.2564754405        0.2791974747
 C         -0.4047794247       -4.2991458353        0.4849872191
 C         -1.5350232552       -4.1727809796        1.4611599220
 H         -2.2960329329       -4.9385979231        1.4721109436
 H         -1.3243123019       -3.7523403723        2.4342435980
 H         -0.3879460934       -5.1534827380       -0.1740896052
 H          0.5742831988       -3.9618636338        0.7937677437
 H         -2.1785614790       -3.4123253151       -0.5146110040
