  62
        -98.94331139
 C         -1.1212029704       -0.6735160495        0.9030699703
 C         -1.7227031001       -0.6825963406       -0.3803741499
 C         -2.4201814500        0.5518213490       -0.7667244011
 C         -2.3607140803        1.6355720797        0.0251727481
 C         -2.9907129702        2.9739690394       -0.2501790732
 C         -4.4713253303        3.0612802497        0.1458687564
 C         -5.4354972201        2.2944883589       -0.7602196932
 H         -6.4450407402        2.6192577691       -0.5006835338
 H         -5.2586143099        2.5780076181       -1.7982105034
 C         -5.3575067101        0.7676962391       -0.6215431219
 H         -4.8435455403        0.5121879598        0.3079070584
 H         -6.3667805601        0.3558497091       -0.5533323718
 C         -4.6574316398        0.0614738681       -1.7827401612
 H         -5.2346307396        0.2017661473       -2.6993197414
 H         -4.6268972898       -1.0092926117       -1.5653081503
 C         -3.2197027697        0.5356451079       -2.0339551112
 H         -2.7362825996       -0.1652953426       -2.7194055105
 H         -3.2218061597        1.5235617076       -2.4949292821
 H         -4.7508297604        4.1171672697        0.1263393054
 H         -4.5786682706        2.7078028106        1.1739839166
 H         -2.8769441900        3.2193754786       -1.3067913834
 H         -2.4325071004        3.7072634199        0.3363318963
 O         -1.6741847606        1.6414664807        1.1990325382
 C         -1.0550965406        0.4921685711        1.6686561693
 O         -0.4741652109        0.6419293820        2.7627927093
 O         -1.6967232299       -1.6620400713       -1.1691308390
 C         -0.3651116005       -1.8793371591        1.4401973115
 C          0.5866267598       -2.3531312499        0.3698021121
 C          0.5970605899       -3.6297396804       -0.1727249868
 C          1.4719099902       -3.9377552512       -1.2010454064
 C          2.3317102303       -2.9851938316       -1.7159712770
 C          2.3336939701       -1.7050341312       -1.1710393680
 C          1.4883437299       -1.4140776203       -0.1157468985
 H          1.4836066497       -0.4209765500        0.3075924607
 N          3.1954403802       -0.7110938315       -1.6546289686
 S          2.8026651501        0.9096567385       -1.5385242201
 O          1.3866185002        1.1532981584       -1.6880159906
 O          3.6617080603        1.5469282878       -2.5154495804
 C          3.3594890497        1.3583795699        0.0918779097
 C          2.4836261095        1.9282496006        0.9932808090
 C          2.9409535892        2.2564198617        2.2598288888
 C          4.2635929291        2.0163363220        2.5980975393
 C          5.1351123393        1.4524090213        1.6779721500
 C          4.6813934596        1.1179899202        0.4127206702
 H          5.3253673598        0.6795277296       -0.3310920993
 H          6.1632119693        1.2690584416        1.9455000404
 H          4.6141491088        2.2704288629        3.5859704392
 H          2.2536574290        2.6819906923        2.9736532783
 H          1.4565590595        2.0917251904        0.7014308386
 H          3.6819836504       -0.9344733422       -2.5097840583
 H          2.9888557205       -3.2223097223       -2.5386920066
 H          1.4675193203       -4.9308453916       -1.6245028355
 H         -0.0990903201       -4.3715005101        0.1828612836
 H          0.2388391093       -1.4833500984        2.2736970113
 C         -1.2395365206       -2.9773560186        2.0235099922
 C         -2.5803955908       -2.6564670982        2.6123253316
 C         -2.4881711804       -3.4627371692        1.3535462123
 H         -2.7176880604       -4.5171788792        1.4058537431
 H         -2.7669290302       -3.0010972400        0.4203042118
 H         -2.8744674210       -3.1526817274        3.5250076919
 H         -2.9228042108       -1.6338974982        2.5403624606
 H         -0.6510481607       -3.7219827582        2.5507780629
