  62
        -98.94328978
 C         -2.5118319110       -1.0322207453       -0.1592510107
 C         -3.6571552218       -0.8876841085        0.6602030268
 C         -4.7031957564        0.0020811050        0.1449711971
 C         -4.5389574867        0.6045589459       -1.0470229371
 C         -5.5254754560        1.5222423543       -1.7170236090
 C         -5.4416064142        2.9805461578       -1.2456470243
 C         -5.9830067124        3.2423110305        0.1603418317
 H         -6.0638343583        4.3249700668        0.2758582603
 H         -6.9892094103        2.8304002424        0.2438150037
 C         -5.1031004461        2.6902279623        1.2905788034
 H         -4.1049210424        2.4741308959        0.9025201145
 H         -4.9866260674        3.4505447057        2.0661912292
 C         -5.6541370842        1.4347331522        1.9667278518
 H         -4.9364491290        1.1099850841        2.7245406563
 H         -6.5923743378        1.6725792214        2.4728514635
 C         -5.8989082052        0.2589806292        1.0117243015
 H         -6.7800597127        0.4487614649        0.3993116119
 H         -6.0745268496       -0.6382525763        1.6103468507
 H         -4.4003063723        3.3060024873       -1.3017465184
 H         -6.0170964260        3.5841902026       -1.9512171341
 H         -5.3006924720        1.4926878614       -2.7853017559
 H         -6.5376733997        1.1467509043       -1.5643471346
 O         -3.4295338108        0.4260973606       -1.8122148487
 C         -2.3818163729       -0.3764046904       -1.3832753341
 O         -1.4195147411       -0.4266378011       -2.1724055326
 O         -3.7971293219       -1.4735090883        1.7672428979
 C         -1.3786525029       -1.9223670032        0.3192474124
 C         -0.1263690518       -1.0985177870        0.4888686046
 C         -0.1553472846       -0.0178376947        1.3675970152
 C          0.9605886291        0.7741593239        1.5522524147
 C          2.1322357925        0.5094668834        0.8634825415
 C          2.1758719179       -0.5694090932       -0.0072839611
 C          1.0527868771       -1.3695923522       -0.1849951217
 H          1.1038649386       -2.2022143455       -0.8690171142
 N          3.3551282842       -0.8377726017       -0.7189290127
 S          4.8235546528       -0.8285558146        0.0871839335
 O          5.6952587547       -1.6638121285       -0.7098292121
 O          4.6691776139       -1.2029827356        1.4738172462
 C          5.3728176639        0.8608329731       -0.0327922214
 C          5.4323135378        1.4394644040       -1.2853873843
 C          5.8701748030        2.7493482195       -1.3970127997
 C          6.2418492072        3.4536549964       -0.2613772606
 C          6.1798192468        2.8573917495        0.9886980880
 C          5.7418335841        1.5474873598        1.1072411922
 H          5.6720381324        1.0451671583        2.0590306641
 H          6.4695512627        3.4064899686        1.8702267108
 H          6.5821071798        4.4731856617       -0.3516180112
 H          5.9192401410        3.2164156520       -2.3675245772
 H          5.1365013210        0.8591634320       -2.1434748865
 H          3.2859545323       -1.6185500323       -1.3547184891
 H          3.0055363771        1.1262978624        0.9986819898
 H          0.9200458822        1.6088729191        2.2356763274
 H         -1.0713647329        0.1915041611        1.9033787480
 H         -1.6881950397       -2.2774951566        1.3131995229
 C         -1.2159921798       -3.1187540061       -0.5935062985
 C         -0.5723027037       -4.3712128206       -0.0799593263
 C         -2.0470975639       -4.3398790658       -0.3438595816
 H         -2.4315513175       -4.8842359687       -1.1933097279
 H         -2.7191702776       -4.3190490952        0.5014330650
 H          0.0555485757       -4.9420389116       -0.7477587129
 H         -0.2396197445       -4.3764073049        0.9471674375
 H         -1.0416289226       -2.8383807684       -1.6263501965
