  62
        -98.94490070
 C         -1.8631297508       -0.3963127110        0.0483544177
 C         -2.9287429654       -0.4793901655        0.9847853972
 C         -4.0889452128        0.3848930896        0.7390525872
 C         -4.0780263561        1.2083804169       -0.3245098356
 C         -5.2114166954        2.1046754719       -0.7290833042
 C         -6.1600876864        1.3956629518       -1.7059885515
 C         -6.5919522480        0.0026648453       -1.2476404812
 H         -7.2817046380       -0.3872596693       -1.9993093827
 H         -5.7203437322       -0.6557207403       -1.2390112443
 C         -7.2657021074       -0.0320325919        0.1312518595
 H         -7.6025121050        0.9686224777        0.4046283536
 H         -8.1521340776       -0.6670824068        0.0720288350
 C         -6.3887284158       -0.5946863235        1.2513637659
 H         -5.9729745516       -1.5571120544        0.9427303242
 H         -7.0244742778       -0.7771562720        2.1218161449
 C         -5.2336316756        0.3046773750        1.7093200078
 H         -5.6131026557        1.3022876728        1.9400092737
 H         -4.8199321577       -0.1258344953        2.6258895054
 H         -7.0414609371        2.0238130716       -1.8475992378
 H         -5.6546720131        1.2974809923       -2.6695471057
 H         -5.7555875516        2.4163810597        0.1604431189
 H         -4.7950875083        2.9878490164       -1.2167648490
 O         -3.0343529335        1.2804316015       -1.1860363128
 C         -1.9070969158        0.4856896041       -1.0311231305
 O         -1.0476219867        0.6762585033       -1.9161318759
 H          0.8143642669        0.7059654395       -0.7292783051
 C          1.1428046632        0.4295189162        0.2615660387
 C          0.4704876312       -0.5732420832        0.9461739406
 C          0.8964344231       -0.9037188553        2.2270455450
 C          1.9679332225       -0.2464502102        2.8070919658
 C          2.6366995453        0.7509286278        2.1209225538
 C          2.2128053307        1.0925080824        0.8431254766
 N          2.9007135536        2.0966582751        0.1289264173
 S          4.5310804130        1.7918367078       -0.1222654673
 O          5.2607344961        2.0960930228        1.0830695010
 O          4.8984390187        2.5535707211       -1.2946853784
 C          4.6031188192        0.0406648949       -0.4532069368
 C          4.1145357354       -0.4108649190       -1.6630203181
 C          4.0885004395       -1.7736939933       -1.9084446225
 C          4.5402770899       -2.6575788792       -0.9404534713
 C          5.0275939984       -2.1881364729        0.2691058906
 C          5.0585990480       -0.8256597179        0.5194754512
 H          5.4299044105       -0.4184645057        1.4453540453
 H          5.3785176952       -2.8783802947        1.0190601593
 H          4.5128634412       -3.7188886661       -1.1312385273
 H          3.7118528702       -2.1392758479       -2.8505096518
 H          3.7728033616        0.3053812910       -2.3934598086
 H          2.4532014689        2.3239525512       -0.7481555831
 H          3.4784948802        1.2699209292        2.5502338279
 H          2.2865894601       -0.5141829950        3.8028339321
 H          0.3734670858       -1.6753819408        2.7726853249
 C         -0.6749698330       -1.3111905171        0.2956908026
 H         -1.0384470069       -2.0583909056        1.0136255372
 C         -0.1973939975       -2.0339397991       -0.9496652892
 C          0.6348851759       -3.2698043520       -0.7935917989
 C         -0.7752858872       -3.3731759018       -1.2904730219
 H         -0.9433202097       -3.6113011071       -2.3301175018
 H         -1.5233275336       -3.7792530001       -0.6251080815
 H          1.4407333048       -3.4372053565       -1.4906348481
 H          0.8443911730       -3.6060146675        0.2102503077
 H          0.0344113219       -1.3696223780       -1.7715574057
 O         -2.9093714847       -1.2512361362        1.9800716764
