  62
        -98.93988703
 C         -1.5436571826        1.1042597033        0.0165848744
 C         -2.6244355831        0.8053010652       -0.8498722478
 C         -3.3369566228       -0.4587171080       -0.6032643393
 C         -2.9177201675       -1.2681314053        0.3840701437
 C         -3.4489579360       -2.6242361239        0.7761639072
 C         -4.9728401118       -2.8032240252        0.8174642338
 C         -5.7633387407       -1.5543150869        1.2340558656
 H         -6.4559118277       -1.8231937729        2.0339416036
 H         -5.0857777450       -0.7968894293        1.6319343947
 C         -6.5814682202       -0.9550428360        0.0875193346
 H         -7.0621476142       -1.7677038569       -0.4615630237
 H         -7.3746117167       -0.3330659773        0.5096347631
 C         -5.7974660130       -0.0841142783       -0.8935375796
 H         -5.5037320080        0.8496693599       -0.4062938421
 H         -6.4665729047        0.1814944633       -1.7155539007
 C         -4.5278060755       -0.7242149424       -1.4784134107
 H         -4.6692487503       -1.7873762417       -1.6561276320
 H         -4.3151442033       -0.2364605729       -2.4334743074
 H         -5.3275364775       -3.1379328933       -0.1562863979
 H         -5.1761080298       -3.6131529339        1.5201800172
 H         -3.0218961235       -3.3667085763        0.0958644339
 H         -3.0329360910       -2.8176602329        1.7679521019
 O         -1.8622513124       -0.9489648726        1.1841873291
 C         -1.1598748477        0.2377498747        1.0383770273
 O         -0.2437110114        0.3841079919        1.8699188703
 H          1.5441754413        2.0755541800        1.2207415028
 C          1.6715914162        1.8229477476        0.1805003957
 C          0.6136007389        1.9699880817       -0.7024709402
 C          0.8033122907        1.6144100844       -2.0352669572
 C          2.0207989970        1.1250024392       -2.4703100571
 C          3.0665234667        0.9511956805       -1.5797543233
 C          2.8800657434        1.2901535854       -0.2465480519
 N          3.9126164111        1.0525431978        0.6793369371
 S          4.6410322143       -0.4533237228        0.6037206183
 O          5.0452171431       -0.7559700020        1.9595222311
 O          5.7098586954       -0.4142225817       -0.3653094354
 C          3.3901447488       -1.6040760732        0.0502833366
 C          2.1684795571       -1.6394071054        0.6925484230
 C          1.2098716487       -2.5398715522        0.2559156013
 C          1.4860214709       -3.3895451169       -0.8036475696
 C          2.7202204722       -3.3463895950       -1.4335609502
 C          3.6810726142       -2.4450019358       -1.0055457404
 H          4.6498630107       -2.3707987335       -1.4725275550
 H          2.9338440385       -4.0079131626       -2.2576377280
 H          0.7343391818       -4.0865698108       -1.1393188473
 H          0.2485398760       -2.5573700575        0.7456685711
 H          1.9502161640       -0.9663625554        1.5069307721
 H          3.6507092007        1.2699421436        1.6304371544
 H          4.0171468563        0.5509015733       -1.8937174683
 H          2.1552056450        0.8620622916       -3.5083455122
 H         -0.0244565172        1.7123121751       -2.7234274792
 C         -0.7583752395        2.3822914967       -0.2323945698
 H         -1.2732914700        2.8864566700       -1.0605731299
 C         -0.7508675976        3.3004713118        0.9711334349
 C         -0.2916886312        4.7177171534        0.8070912217
 C         -1.7413398856        4.4221010231        1.0441955743
 H         -2.1686664410        4.6698205493        2.0044283709
 H         -2.4284568818        4.5373052525        0.2188068948
 H          0.0073627278        5.0315771593       -0.1815162593
 H          0.2782792717        5.1719610748        1.6031959299
 H         -0.5123968371        2.7950423831        1.8991438655
 O         -2.9739903116        1.5590084363       -1.7958327048
