  62
        -98.93674885
 C         -2.4165719245       -1.1338713110        0.1826254903
 C         -2.5106821485        0.0422675229       -0.6016946628
 C         -3.8765049169        0.4857868501       -0.9277444297
 C         -4.9296200867       -0.2222996072       -0.4831483594
 C         -6.3681661752        0.1468940259       -0.6986799996
 C         -6.8962020231        1.0146179409        0.4524343581
 C         -5.9873156969        2.1920088978        0.8055863038
 H         -6.4745242071        2.7492137483        1.6086770373
 H         -5.0458330758        1.8087101805        1.2058757380
 C         -5.6899453500        3.1382619907       -0.3659638513
 H         -5.7921251037        4.1683746217       -0.0182956211
 H         -6.4246166310        2.9892142563       -1.1580463945
 C         -4.2821245374        3.0033961640       -0.9495200318
 H         -3.5434652170        3.0577039189       -0.1456109263
 H         -4.1061565493        3.8543153936       -1.6129751001
 C         -4.0151327738        1.7290992723       -1.7606091329
 H         -4.7931224933        1.6028693464       -2.5163459245
 H         -3.0558779312        1.8559645571       -2.2711243797
 H         -7.0016604218        0.3856286431        1.3393878750
 H         -7.8856748625        1.3854641011        0.1791246640
 H         -6.9549670031       -0.7718739662       -0.7481411340
 H         -6.4636821044        0.6791151979       -1.6430022030
 O         -4.7997680657       -1.3436295938        0.2716119180
 C         -3.5497762404       -1.8120881722        0.6393803412
 O         -3.5778718149       -2.8233758449        1.3689404483
 O         -1.5196126840        0.6984964607       -1.0135107275
 C         -1.0750579961       -1.6974382404        0.6175339360
 C         -0.1646678642       -0.5891773394        1.0866870066
 C         -0.5683320064        0.1928959525        2.1666372994
 C          0.2344197609        1.2107936212        2.6421122444
 C          1.4691827457        1.4563673625        2.0671331207
 C          1.8795320770        0.6844996005        0.9875879958
 C          1.0629382412       -0.3273982416        0.5016392586
 H          1.4000498871       -0.8929748731       -0.3507594120
 N          3.1161958034        0.9195782602        0.3655158812
 S          3.9772662321       -0.4061253088       -0.2238140960
 O          3.5320146089       -0.7051812170       -1.5614297001
 O          3.9189745799       -1.4953044572        0.7257877862
 C          5.6249713313        0.2753896696       -0.2793243665
 C          5.9867671982        1.0538993769       -1.3626784383
 C          7.2557768217        1.6099041615       -1.3937445841
 C          8.1369313591        1.3800042992       -0.3474083266
 C          7.7604872214        0.5949135189        0.7319810002
 C          6.4922199901        0.0370177416        0.7701756349
 H          6.1588809240       -0.5871127730        1.5836782992
 H          8.4489885613        0.4149434545        1.5418289371
 H          9.1243603121        1.8130340319       -0.3749619482
 H          7.5529327210        2.2183616973       -2.2326202345
 H          5.2716513720        1.1968790390       -2.1560994316
 H          3.7070125968        1.5543304068        0.8845551363
 H          2.1018741940        2.2462381596        2.4428589064
 H         -0.0972045108        1.8122796486        3.4754124845
 H         -1.5292224950       -0.0068047268        2.6229503326
 H         -1.3019483229       -2.3318043881        1.4916745437
 C         -0.4190364438       -2.6043683032       -0.4129235974
 C         -1.2374252217       -3.4124254639       -1.3737441286
 C         -0.4020230396       -2.2741695165       -1.8737629528
 H          0.4946332674       -2.4946577295       -2.4354203579
 H         -0.8960804921       -1.3674996890       -2.1853933946
 H         -0.9207533355       -4.4210712943       -1.5926762734
 H         -2.3101827613       -3.2869212541       -1.3460219603
 H          0.4702610708       -3.0872925236       -0.0160953965
