  62
        -98.94373182
 C          1.9131937099        1.2525697405       -0.2943598892
 C          1.8419566100       -0.0345904899        0.2907744199
 C          3.0900880799       -0.5351884102        0.8847750898
 C          4.1890707299        0.2407300699        0.8644515004
 C          5.5367634598       -0.1694087903        1.3817149804
 C          6.3806327101       -0.8189011094        0.2757948701
 C          5.6453995103       -1.9092262890       -0.5038305908
 H          4.8249034603       -1.4545496287       -1.0635926406
 H          6.3477474404       -2.3141838684       -1.2356641610
 C          5.0960377803       -3.0506432196        0.3634756184
 H          5.3306522004       -4.0013608493       -0.1199576822
 H          5.5932640401       -3.0505852102        1.3341898884
 C          3.5806251002       -3.0171334699        0.5704699682
 H          3.2755132803       -3.9735390802        1.0032923275
 H          3.0824370604       -2.9204576893       -0.3973374218
 C          3.0607733100       -1.9084606006        1.4943877888
 H          2.0089019600       -2.1178260608        1.7107755985
 H          3.6125666398       -1.9256243912        2.4364100289
 H          6.6850665501       -0.0411090089       -0.4284631694
 H          7.2812230800       -1.2368972496        0.7293789999
 H          6.0526189097        0.7213413395        1.7444333910
 H          5.4071336598       -0.8635986808        2.2098220199
 O          4.2094419498        1.4844880903        0.3196514713
 C          3.0794505198        2.0163698106       -0.2812600885
 O          3.2353961998        3.1614895809       -0.7526081677
 H         -1.9717239499        1.2968221609       -1.4224786998
 C         -1.7724508001        1.5786707602       -0.3999208295
 C         -0.4789101302        1.8860768501       -0.0047505091
 C         -0.2638193704        2.2593717492        1.3190666611
 C         -1.3056288506        2.2940066985        2.2261505310
 C         -2.5924601405        1.9711356686        1.8316461706
 C         -2.8223719302        1.6163132295        0.5104163303
 N         -4.1375605701        1.2939435396        0.1086460999
 S         -4.7877917901       -0.1368886609        0.6908686489
 O         -6.1489671200       -0.1755058007        0.2062684586
 O         -4.6135921003       -0.1793169918        2.1194794489
 C         -3.8379325598       -1.4236581802       -0.0997226519
 C         -2.5226306499       -1.6076743603        0.2771108682
 C         -1.7593561197       -2.5502277798       -0.3935106223
 C         -2.3241545994       -3.2957131992       -1.4166800229
 C         -3.6502268594       -3.1060582291       -1.7773273430
 C         -4.4137861296       -2.1545997796       -1.1210021424
 H         -5.4446202396       -1.9657770395       -1.3743402325
 H         -4.0867877592       -3.6900799586       -2.5717490934
 H         -1.7253073293       -4.0273905488       -1.9364111133
 H         -0.7224306297       -2.6638816999       -0.1211140522
 H         -2.0970468600       -1.0177072808        1.0725513787
 H         -4.2683108000        1.3278041203       -0.8933550501
 H         -3.4131128506        1.9721300281        2.5298786005
 H         -1.1153944207        2.5758353078        3.2510081812
 H          0.7398675795        2.5123795191        1.6335896015
 C          0.6861665300        1.8426350708       -0.9637933590
 H          0.9501994199        2.8774610210       -1.2277450483
 C          0.3820437702        1.0756408016       -2.2358693496
 C         -0.2219070697        1.7692574424       -3.4191806192
 C          1.2135654704        1.3404506525       -3.4534808593
 H          1.4901383306        0.5075384130       -4.0822382598
 H          1.9782407303        2.0997884726       -3.3739548586
 H         -0.9295429495        1.2283088527       -4.0298169797
 H         -0.4307945298        2.8247965523       -3.3297346185
 H          0.0927930003        0.0489256115       -2.0403632603
 O          0.7951784900       -0.7297377100        0.3159901593
