  62
        -98.93807108
 C         -1.4607663524       -1.7672895999        0.1430380114
 C         -1.5824813820       -0.8411035302       -0.9201014290
 C         -2.6963048115        0.1213924604       -0.8208134593
 C         -3.4995268414        0.0920727713        0.2580086408
 C         -4.6393911208        1.0321463121        0.5306539405
 C         -4.1121843000        2.4043056620        0.9953687199
 C         -4.4002564395        3.5508250817        0.0260040894
 H         -5.4508280493        3.8356460523        0.1140436394
 H         -3.7991610390        4.4062984115        0.3411415490
 C         -4.1171456198        3.2613044309       -1.4507898205
 H         -4.1285646193        4.2216738207       -1.9706926809
 H         -4.9311490301        2.6703005212       -1.8734824502
 C         -2.7883275202        2.5562822201       -1.7515191403
 H         -2.3766727400        2.9884830495       -2.6663078105
 H         -2.0640802000        2.7510338400       -0.9609488704
 C         -2.9032949110        1.0400754000       -1.9950354096
 H         -3.8728259312        0.8219919704       -2.4529448695
 H         -2.1321334613        0.7484340893       -2.7147246196
 H         -4.5539779498        2.6548239926        1.9608140598
 H         -3.0354498001        2.3252292114        1.1544810198
 H         -5.2509318710        0.5768727727        1.3100118307
 H         -5.2456172609        1.1399094020       -0.3664188695
 O         -3.3207814618       -0.7816148784        1.2820723211
 C         -2.3197475823       -1.7349411789        1.2467748615
 O         -2.2965202727       -2.4885901985        2.2384389518
 O         -0.8197854721       -0.8071693811       -1.9228268090
 C         -0.3972128830       -2.8579145705        0.1651512418
 C          0.9446134373       -2.2355731111        0.4640146714
 C          1.4227578375       -2.1911949808        1.7697993613
 C          2.6140733078       -1.5523422113        2.0653551410
 C          3.3369794281       -0.9163609921        1.0710903107
 C          2.8553888080       -0.9398162924       -0.2308461293
 C          1.6862719076       -1.6218694619       -0.5338823389
 H          1.3174481175       -1.6191119121       -1.5473958389
 N          3.5245587683       -0.2026708132       -1.2288731996
 S          3.7694325593        1.4143512468       -0.8501458503
 O          3.6396690596        2.1365855064       -2.0965376506
 O          5.0405315094        1.5552650464       -0.1824755205
 C          2.4620379996        1.8490230880        0.2905193396
 C          1.1523732894        1.5628462286       -0.0418412302
 C          0.1580539096        1.8241600695        0.8862317798
 C          0.4771312400        2.3878119899        2.1112171895
 C          1.7936261802        2.6929457293        2.4189148193
 C          2.7969901800        2.4104682083        1.5063470193
 H          3.8364384401        2.6041481878        1.7159889692
 H          2.0408933405        3.1348170595        3.3705691791
 H         -0.3049114198        2.5829731606        2.8284292995
 H         -0.8612356305        1.5599666100        0.6480896300
 H          0.9080551791        1.1263220183       -0.9976134400
 H          3.0796721682       -0.2798670333       -2.1333212596
 H          4.2514096884       -0.3859463826        1.2841674104
 H          2.9758929679       -1.5349018211        3.0818712210
 H          0.8394155773       -2.6487622501        2.5559970116
 H         -0.6615744833       -3.5094046700        1.0079472621
 C         -0.3987680736       -3.6874195010       -1.1031273179
 C          0.3029886657       -5.0109386714       -1.1070537374
 C         -1.1941070943       -4.9559589006       -1.1461510573
 H         -1.6974600345       -5.2171648907       -2.0650590972
 H         -1.7392845244       -5.2357266699       -0.2563858771
 H          0.8305692154       -5.3128004620       -1.9988562773
 H          0.7744286356       -5.3276560512       -0.1889941273
 H         -0.3681685133       -3.0984597214       -2.0103223481
