  62
        -98.93689646
 C         -1.9641816694       -0.8978602107       -0.0263109646
 C         -2.2825598886        0.0843864423        0.9380329053
 C         -2.5400213683        1.4414867223        0.4317538505
 C         -2.4343369455        1.6827497515       -0.8862485807
 C         -2.5940890943        2.9941901561       -1.6144981303
 C         -3.7607626486        3.9010916939       -1.1984561013
 C         -5.0203711189        3.1622207069       -0.7232333346
 H         -4.9401945374        2.0991810464       -0.9565098283
 H         -5.8847054304        3.5515001713       -1.2642489802
 C         -5.2857665713        3.3376287569        0.7738963968
 H         -6.3385201314        3.1226041189        0.9716356307
 H         -5.1089198484        4.3816927652        1.0409516376
 C         -4.4610695699        2.4401195291        1.6958075818
 H         -4.7937231871        1.4030505640        1.5992737485
 H         -4.6565506641        2.7445599927        2.7268298510
 C         -2.9422993373        2.4630015597        1.4564820537
 H         -2.4481229975        2.1660202640        2.3860421857
 H         -2.5980167835        3.4589112540        1.1873731788
 H         -4.0051223364        4.5166519055       -2.0657764447
 H         -3.4309216408        4.5809693705       -0.4141370322
 H         -1.6542938262        3.5461973184       -1.5174765768
 H         -2.6988473207        2.7216440441       -2.6674562832
 O         -2.1142161396        0.7067208094       -1.7823784814
 C         -1.8627131151       -0.5952511483       -1.3828341944
 O         -1.5743937033       -1.3722572783       -2.3136546382
 H          0.5022165175       -0.7243763161        0.3107647360
 C          0.7455613041       -1.7417686739        0.0395203134
 C         -0.2525080566       -2.7076509312        0.0328567452
 C          0.0898501454       -4.0108731654       -0.3063309423
 C          1.3958371414       -4.3278460031       -0.6382522653
 C          2.3825010473       -3.3602373172       -0.6425020442
 C          2.0491341065       -2.0505901467       -0.3103535077
 N          3.0190886766       -1.0370204069       -0.3634984189
 S          2.7874356930        0.4294364007        0.4235125422
 O          2.5132023942        0.2163008837        1.8282773756
 O          1.8211385574        1.2105851172       -0.3088567049
 C          4.4116529475        1.1364265767        0.2207319291
 C          5.3100357130        1.0978811369        1.2701127005
 C          6.5785462197        1.6260825241        1.0867248785
 C          6.9260571563        2.1782406957       -0.1368482075
 C          6.0132478970        2.2107295228       -1.1809149414
 C          4.7432512679        1.6853829267       -1.0037487816
 H          3.9971233170        1.6953737250       -1.7814363625
 H          6.2854509040        2.6432170938       -2.1301591324
 H          7.9134057374        2.5887652436       -0.2773393159
 H          7.2889840947        1.6048788678        1.8972373276
 H          4.9915649265        0.6654132983        2.2049113965
 H          3.9675969677       -1.3755449430       -0.2864251573
 H          3.3980141224       -3.6073275923       -0.9106175010
 H          1.6480356523       -5.3444838010       -0.8990606227
 H         -0.6672500739       -4.7779282050       -0.3124142897
 C         -1.6540181059       -2.3093579322        0.4301379351
 H         -1.6978723896       -2.2772353138        1.5304201635
 C         -2.7113669304       -3.2726132748       -0.0719412082
 C         -3.1209856623       -4.4554830347        0.7524187650
 C         -4.0494413692       -3.2893450230        0.6026506619
 H         -4.9334971890       -3.4036085698       -0.0063974602
 H         -4.1831117180       -2.6290655308        1.4474453962
 H         -2.6351741417       -4.5929736929        1.7067200862
 H         -3.3713421940       -5.3749165441        0.2449291995
 H         -2.6925798158       -3.3783285348       -1.1509712833
 O         -2.3408065675       -0.1601975994        2.1753039084
