  62
        -98.94066632
 C          1.7431521196        0.3748502802        0.4433993509
 C          2.9214508996        0.5268442700        1.2181203311
 C          4.1658542497        0.7345408501        0.4699964313
 C          4.1376511198        0.7600943002       -0.8746478087
 C          5.3182380299        0.9809992403       -1.7809600886
 C          6.1305499299       -0.2894910197       -2.0671385687
 C          6.9780186397       -0.7972420399       -0.8997859686
 H          7.5919823897        0.0180345500       -0.5157738285
 H          7.6554470097       -1.5537870899       -1.3008610187
 C          6.1685460896       -1.4188131900        0.2469795812
 H          6.6315036595       -2.3602295601        0.5516033511
 H          5.1623108496       -1.6574457699       -0.1055731690
 C          6.0610709295       -0.5424969402        1.4950987213
 H          7.0518722094       -0.4073702503        1.9345305814
 H          5.4368082694       -1.0622109603        2.2265745911
 C          5.4446455196        0.8400109099        1.2447761614
 H          6.1552671697        1.4796716599        0.7217720916
 H          5.2119921495        1.2913954498        2.2124338414
 H          6.7982472500       -0.0678689796       -2.9028965486
 H          5.4449890299       -1.0767217596       -2.3894172589
 H          5.9708350599        1.7431378302       -1.3541582484
 H          4.9188381801        1.3538500805       -2.7265201686
 O          2.9903448199        0.5963374004       -1.5830424889
 C          1.7711074198        0.3749364704       -0.9522632491
 O          0.8236801699        0.2018019405       -1.7401267892
 O          2.9317784394        0.4861438098        2.4773721811
 C          0.4422423096        0.1312415402        1.1863043908
 C         -0.2997179304       -1.0349996497        0.5835505405
 C          0.3577138795       -2.2576966397        0.4643287004
 C         -0.2760580305       -3.3513101696       -0.0899608898
 C         -1.5916768604       -3.2597161995       -0.5115388299
 C         -2.2609432404       -2.0506230695       -0.3848932298
 C         -1.6125237604       -0.9464811396        0.1515703704
 H         -2.1448396803       -0.0128100896        0.2130047305
 N         -3.5963284803       -1.9131334394       -0.7967314800
 S         -4.6677790304       -1.1258408294        0.2211196800
 O         -4.3187361306       -1.3221030796        1.6093742200
 O         -5.9741897904       -1.6058008593       -0.1778404502
 C         -4.5393215903        0.5976084306       -0.2041410097
 C         -4.5522925501        0.9574861608       -1.5369653297
 C         -4.4970112300        2.3021886608       -1.8665566895
 C         -4.4372773901        3.2590036307       -0.8645448193
 C         -4.4276750302        2.8811732305        0.4696207706
 C         -4.4798636303        1.5375026905        0.8057358204
 H         -4.4652773205        1.1982353003        1.8293812304
 H         -4.3777692403        3.6261456604        1.2479275307
 H         -4.3940747400        4.3051393307       -1.1241093092
 H         -4.4996109299        2.6002399310       -2.9025851894
 H         -4.5991940501        0.1874690809       -2.2886256698
 H         -4.0064226803       -2.7487517693       -1.1882329001
 H         -2.0922740704       -4.1156663994       -0.9387165401
 H          0.2525239995       -4.2880340396       -0.1865328999
 H          1.3824206895       -2.3342629098        0.8032002105
 H          0.7613497894       -0.1661681000        2.2002839108
 C         -0.4240776104        1.3707293202        1.3544845708
 C          0.1759751397        2.7439705702        1.3478016011
 C         -0.7065138702        2.3071489704        0.2191482509
 H         -1.6951873202        2.7356270104        0.1437106909
 H         -0.2543398301        2.0822248805       -0.7335572691
 H         -0.2041868004        3.4712396901        2.0491978311
 H          1.2377690997        2.8257765301        1.1658949312
 H         -1.2326619405        1.2043282101        2.0607674907
