  62
        -98.94016792
 C          1.4041225001        1.5970324606       -0.5536716495
 C          1.1890863599        0.2387643208       -0.9092447199
 C          2.3453285597       -0.6637457295       -0.7677699899
 C          3.5217621297       -0.1868370598       -0.3300672295
 C          4.7572292994       -1.0047920601       -0.0927674495
 C          4.8208181890       -1.5087986906        1.3554260804
 C          3.5285980688       -2.1677492105        1.8393093699
 H          3.7044770985       -2.5199569008        2.8584215699
 H          2.7360389189       -1.4170212103        1.8956381500
 C          3.0474926287       -3.3379495501        0.9706244795
 H          2.7447180284       -4.1569274802        1.6268438892
 H          3.8682782688       -3.7035212501        0.3515717396
 C          1.8442083890       -3.0121737896        0.0831438893
 H          1.0623984690       -2.5447198596        0.6893309693
 H          1.4468618589       -3.9560164394       -0.3025089010
 C          2.1314932295       -2.1082543593       -1.1229753204
 H          2.9857830895       -2.4987234094       -1.6804492703
 H          1.2523901396       -2.1319268890       -1.7734011606
 H          5.6452904488       -2.2195476208        1.4380423704
 H          5.0364850390       -0.6603677108        2.0090442807
 H          4.7680627594       -1.8466593000       -0.7822228497
 H          5.6277156696       -0.3756445603       -0.2869847091
 O          3.7024198698        1.1183040800       -0.0086310191
 C          2.6594358300        2.0209063803       -0.0904980991
 O          2.9772517002        3.1745210501        0.2685913413
 H         -1.2595635003        0.5955457210       -0.0265371304
 C         -1.4109385303        1.4033743308        0.6672478298
 C         -0.6589456200        2.5609496307        0.5447066303
 C         -0.8711123200        3.5917580105        1.4551609506
 C         -1.8033173303        3.4560897704        2.4681610903
 C         -2.5275809405        2.2850229205        2.6065355498
 C         -2.3224485405        1.2507016107        1.7015244596
 N         -3.0399373308        0.0494840708        1.7917667391
 S         -2.2880281810       -1.3973268692        1.3987203388
 O         -3.0834193313       -2.4046742092        2.0762785484
 O         -0.8881112511       -1.3821655996        1.7570150591
 C         -2.5247289306       -1.6037601786       -0.3534865513
 C         -3.4255634103       -0.8148327183       -1.0378629813
 C         -3.6065976300       -1.0322855979       -2.3945233614
 C         -2.8946041801       -2.0314012078       -3.0382001715
 C         -2.0012372904       -2.8214363482       -2.3328386115
 C         -1.8145475307       -2.6083467186       -0.9772269014
 H         -1.1192174409       -3.1918658789       -0.3955957414
 H         -1.4428349504       -3.5959202082       -2.8346712216
 H         -3.0312019499       -2.1915279075       -4.0963107816
 H         -4.2973682698       -0.4146170876       -2.9460043814
 H         -3.9558020003       -0.0352949083       -0.5162229812
 H         -3.6320125510       -0.0447769993        2.6036410589
 H         -3.2407940807        2.1699928804        3.4087578696
 H         -1.9575663403        4.2639779602        3.1675023605
 H         -0.2880192198        4.4978474204        1.3723920209
 C          0.3655972103        2.7144392708       -0.5568491794
 H          0.9602495604        3.6070800207       -0.3077955290
 C         -0.3292130694        3.0624631913       -1.8708178395
 C          0.2478362709        2.7158714516       -3.2088109194
 C         -1.0473833393        2.1029228417       -2.7674698499
 H         -1.9596876892        2.4437488821       -3.2349364100
 H         -1.0430651996        1.0583338417       -2.5058537802
 H          1.1218972708        2.0802890714       -3.2205649694
 H          0.2402207612        3.4651741318       -3.9866730492
 H         -0.7816046892        4.0482995714       -1.7963066293
 O          0.1090380099       -0.2414169889       -1.3393932103
