  62
        -98.94398094
 C         -1.3867195097       -1.5793848104       -0.6126071615
 C         -2.6180569612       -1.5492463605        0.0908198350
 C         -3.5950514447       -0.5404228138       -0.3341206304
 C         -3.2848959869        0.2818391148       -1.3525602684
 C         -4.1521477758        1.4027464608       -1.8461561507
 C         -3.8140929661        2.7160061303       -1.1270241334
 C         -3.7591120597        2.5915524099        0.3958429277
 H         -3.5510876023        3.5874186341        0.7939996881
 H         -2.9087536479        1.9610917236        0.6688348674
 C         -5.0393297983        2.0382912152        1.0380216624
 H         -5.8722573523        2.1311710421        0.3400180328
 H         -5.2799065521        2.6452772750        1.9133747580
 C         -4.9366233363        0.5885085960        1.5157706412
 H         -5.8050447824        0.3756325005        2.1449679123
 H         -4.0446518553        0.4712754504        2.1368829327
 C         -4.8973959546       -0.4761218139        0.4124240908
 H         -5.7303753204       -0.3235416398       -0.2768193162
 H         -5.0178198019       -1.4533964088        0.8891263311
 H         -4.5567812873        3.4656105450       -1.4073027598
 H         -2.8348282755        3.0587761587       -1.4706425954
 H         -5.1976001920        1.1460427198       -1.6857682870
 H         -3.9769898379        1.5297210165       -2.9159145492
 O         -2.1109701937        0.2086916498       -2.0239787391
 C         -1.1167689079       -0.6926094136       -1.6564885957
 O         -0.0863681611       -0.5983558912       -2.3476126858
 O         -2.8864089859       -2.3408509666        1.0356807876
 C         -0.3592169539       -2.5809448023       -0.1169068844
 C          0.4428317672       -1.9982382980        1.0221559868
 C          0.8096374619       -2.7770998104        2.1139029986
 C          1.5421881810       -2.2281948644        3.1516603238
 C          1.9113892553       -0.8956890940        3.1274757186
 C          1.5316589408       -0.1014483882        2.0494360491
 C          0.8164523728       -0.6625874344        1.0016399508
 H          0.5189300603       -0.0384297175        0.1756316847
 N          1.8353384877        1.2620102120        2.0354027628
 S          1.8934988963        2.2110341975        0.6658712065
 O          2.3931224371        3.4775787023        1.1593767569
 O          0.6072094270        2.2483481862        0.0184528814
 C          3.1417984275        1.4705515249       -0.3696321606
 C          2.8092110702        0.7597696079       -1.5035873784
 C          3.8303573877        0.2038921563       -2.2614383948
 C          5.1511527564        0.3588349905       -1.8744495535
 C          5.4676766254        1.0756495805       -0.7295475904
 C          4.4556673719        1.6377424843        0.0289862635
 H          4.6587195003        2.2211428150        0.9122719407
 H          6.4958734765        1.1982586927       -0.4299305174
 H          5.9371020002       -0.0790751202       -2.4692921750
 H          3.5760150442       -0.3501294236       -3.1506243099
 H          1.7756241432        0.6340366401       -1.7879158591
 H          2.4476485048        1.5886748961        2.7662322446
 H          2.4697244590       -0.4638834804        3.9436245444
 H          1.8227075479       -2.8424993073        3.9936073404
 H          0.4974081457       -3.8099986144        2.1579454264
 H         -0.9506777948       -3.4138580405        0.2974926665
 C          0.5215168362       -3.1503307079       -1.2194802929
 C          1.9579624728       -2.7702956170       -1.3950558740
 C          1.6043514409       -4.1383666261       -0.8997142064
 H          1.7416385383       -4.9798032448       -1.5616630844
 H          1.7950184570       -4.3565241092        0.1394270608
 H          2.3246387597       -2.6576574117       -2.4030548750
 H          2.3844706401       -2.0650884725       -0.6981511364
 H         -0.0417730913       -3.3263051339       -2.1300148101
