  62
        -98.94580114
 C         -2.1971541650       -1.1876909477        0.2051077630
 C         -1.8864597491       -0.2677399651       -0.8265181252
 C         -2.6951020049        0.9595311964       -0.8467864825
 C         -3.6524428170        1.1484418691        0.0797184458
 C         -4.5793525331        2.3306880479        0.1696221201
 C         -3.9836877066        3.5407786988        0.9022442679
 C         -2.9117834809        4.3068687370        0.1260537748
 H         -3.2950627945        4.5635579867       -0.8620110160
 H         -2.7348736552        5.2424773526        0.6603182284
 C         -1.5780115531        3.5601325833       -0.0162884333
 H         -1.5365760279        2.7495843110        0.7160009344
 H         -0.7522419622        4.2380093093        0.2136697578
 C         -1.3207652166        2.9859451890       -1.4091961151
 H         -1.2528024281        3.8016601818       -2.1320815969
 H         -0.3564764473        2.4736544070       -1.3928323583
 C         -2.3854948896        1.9909875858       -1.8904412391
 H         -3.2924162014        2.5234157029       -2.1762716993
 H         -1.9963538307        1.4677521977       -2.7671276060
 H         -3.5726451085        3.2048133459        1.8573824687
 H         -4.8050158942        4.2276302944        1.1190663237
 H         -4.8921214439        2.6286590613       -0.8314650501
 H         -5.4587427669        1.9932660434        0.7225182303
 O         -3.9080699239        0.2454017918        1.0640579582
 C         -3.1854999031       -0.9345741098        1.1555656318
 O         -3.5108368587       -1.6625540612        2.1163738371
 H         -0.2048525172       -0.5402730812        1.6246037216
 C          0.5058554655       -1.2224492202        1.1733314574
 C          0.0362590349       -2.2997961874        0.4341482625
 C          0.9651823057       -3.1635365292       -0.1342280218
 C          2.3222714429       -2.9508314106        0.0367178113
 C          2.7851950538       -1.8699274552        0.7638574377
 C          1.8651932350       -0.9948305864        1.3274362306
 N          2.3239431812        0.1300907691        2.0322406139
 S          3.5947386631        0.9998440651        1.3733565344
 O          4.8437490812        0.4272019485        1.8132181783
 O          3.3626617665        2.3701906898        1.7763985010
 C          3.4615381477        0.8324644555       -0.3990771450
 C          4.5925569502        0.5372721603       -1.1333979481
 C          4.4818336260        0.3962869040       -2.5074598564
 C          3.2455658950        0.5362825135       -3.1189488907
 C          2.1183709943        0.8319727314       -2.3680943680
 C          2.2277933638        0.9914607521       -0.9968862683
 H          1.3598331307        1.2143310830       -0.3964315951
 H          1.1470784856        0.9113518568       -2.8298380473
 H          3.1557186653        0.4101494261       -4.1862899990
 H          5.3567058576        0.1674733385       -3.0945061006
 H          5.5291983609        0.4146543667       -0.6140229615
 H          1.5895437648        0.7449570890        2.3501622185
 H          3.8385586226       -1.6877595305        0.9050102521
 H          3.0302803156       -3.6333337722       -0.4073429964
 H          0.6247332175       -4.0062314430       -0.7128549235
 C         -1.4534352257       -2.5066492046        0.2994498790
 H         -1.8098982644       -2.9892357712        1.2221520776
 C         -1.8236920135       -3.3840522631       -0.8808677456
 C         -1.9257255678       -4.8706657677       -0.7239086818
 C         -3.1669052898       -4.0478097349       -0.8893292664
 H         -3.7088170874       -4.1071894367       -1.8212353407
 H         -3.7995792500       -3.8937644052       -0.0267248885
 H         -1.7242301308       -5.2876621300        0.2513979340
 H         -1.6176494224       -5.4989609135       -1.5460955532
 H         -1.4543533434       -2.9907930072       -1.8208953971
 O         -0.9887591814       -0.4561866522       -1.6853944083
