  62
        -98.94507954
 C         -2.5648597012       -0.0134981034        0.3513128700
 C         -2.1964003305        0.5905559950       -0.8752574642
 C         -1.9007051506        2.0289598950       -0.8173163389
 C         -2.0111135342        2.6788112194        0.3551177723
 C         -1.7685851740        4.1475216692        0.5520876615
 C         -0.3255225080        4.4451237655        0.9771967021
 C          0.7337931743        3.7783887092        0.0997679150
 H          1.7088421782        4.1218341762        0.4542065901
 H          0.7064151782        2.6970872279        0.2523009905
 C          0.6041273276        4.0743426578       -1.4006844685
 H          0.0010456113        4.9704951983       -1.5548420077
 H          1.6000854263        4.2789876402       -1.7987370138
 C          0.0264233411        2.9182216053       -2.2205100193
 H          0.5286666304        1.9903783084       -1.9342454974
 H          0.2432060594        3.1047353118       -3.2759787532
 C         -1.4875958010        2.7020626549       -2.0951401603
 H         -2.0100838718        3.6532907772       -2.2209616109
 H         -1.7986894296        2.0288064259       -2.8993821757
 H         -0.1827397820        5.5278825661        0.9639847434
 H         -0.1863306597        4.0958908241        2.0032747462
 H         -1.9985201400        4.6696862130       -0.3749194836
 H         -2.4452229840        4.4994806752        1.3334800493
 O         -2.3608839585        2.0623119020        1.5151057942
 C         -2.6182843263        0.7016772933        1.5453338254
 O         -2.8945035904        0.2549730032        2.6800399042
 O         -2.1371579223       -0.0356652461       -1.9660532930
 C         -2.8795109897       -1.4965160898        0.4002616771
 C         -1.7236155427       -2.3137434029       -0.1266431668
 C         -1.8997578775       -3.5199229362       -0.7931824906
 C         -0.8039312740       -4.2420208726       -1.2345774503
 C          0.4813662805       -3.7730145676       -1.0406786451
 C          0.6679803703       -2.5613449168       -0.3816070167
 C         -0.4286729973       -1.8636114731        0.0945593139
 H         -0.2729018380       -0.9400362719        0.6334663190
 N          1.9594382140       -2.0288937344       -0.2360434843
 S          2.2451437802       -0.6024731752        0.5954031790
 O          1.9811529509       -0.7661831693        2.0108777452
 O          1.5544535275        0.4706633315       -0.0698845328
 C          4.0001667649       -0.4531142942        0.3232671183
 C          4.4410245741        0.1609046178       -0.8334129263
 C          5.8039495300        0.2490435530       -1.0683153247
 C          6.6987631121       -0.2766163457       -0.1481015155
 C          6.2419933491       -0.8869719436        1.0103832318
 C          4.8799529459       -0.9781057753        1.2508367150
 H          4.4794413885       -1.4322530020        2.1430116102
 H          6.9400209520       -1.2906834882        1.7259592552
 H          7.7589601935       -0.2071638273       -0.3335031693
 H          6.1620743120        0.7264807109       -1.9661076327
 H          3.7072754485        0.5607960060       -1.5141378180
 H          2.6915484306       -2.7148394774       -0.1290351694
 H          1.3338597606       -4.3270080244       -1.4013050669
 H         -0.9550773036       -5.1810650379       -1.7450804009
 H         -2.8955645182       -3.8941827709       -0.9667893357
 H         -3.0141549665       -1.7440803352        1.4648308992
 C         -4.1779193391       -1.7739255174       -0.3332202413
 C         -5.1139906479       -2.8413968906        0.1460315889
 C         -5.4710523274       -1.3971603828        0.3231327034
 H         -6.2567397183       -0.9775533661       -0.2868401359
 H         -5.4134781902       -0.9715348979        1.3148296307
 H         -5.6605314139       -3.4148088665       -0.5875529188
 H         -4.8291743991       -3.4004672821        1.0247091141
 H         -4.0908883158       -1.6070005815       -1.4008069411
