  62
        -98.94045722
 C         -2.4759840686       -1.1936564701        0.0157275978
 C         -2.4554385979        0.0209443917       -0.7107112235
 C         -3.7681750470        0.6278248164       -0.9764001081
 C         -4.8819696604        0.0056883237       -0.5482261384
 C         -6.2757262256        0.5415102896       -0.6992124431
 C         -6.6796426359        1.3852274158        0.5182102542
 C         -5.6402048240        2.4333229016        0.9156492536
 H         -6.0442893220        2.9860748227        1.7664703969
 H         -4.7362115778        1.9266618987        1.2614522510
 C         -5.2701061009        3.4164657025       -0.2036224876
 H         -6.0338745076        3.3968951183       -0.9817986288
 H         -5.2531316858        4.4272645319        0.2091932121
 C         -3.8984630619        3.1710043805       -0.8353831545
 H         -3.1395432421        3.0964940590       -0.0520444001
 H         -3.6470890098        4.0382814994       -1.4518030627
 C         -3.7883317081        1.9287201732       -1.7285072183
 H         -4.5902020467        1.9347160925       -2.4697209245
 H         -2.8312431413        1.9829677000       -2.2561174270
 H         -7.6286395382        1.8770305378        0.2975777659
 H         -6.8325843104        0.7157441556        1.3677413979
 H         -6.3323485492        1.1409952100       -1.6055618687
 H         -6.9608727251       -0.3030305902       -0.7886750433
 O         -4.8610017695       -1.1725942280        0.1260544858
 C         -3.6626719504       -1.7951140081        0.4338835050
 O         -3.7835810002       -2.8583062462        1.0754979374
 H          1.5142089634       -1.3858633851       -0.0656581175
 C          1.0928316183       -0.8257184519        0.7514766714
 C         -0.2449858984       -0.9623755543        1.0866202630
 C         -0.7423830573       -0.2262180976        2.1592453855
 C          0.0719071404        0.6446323356        2.8559755019
 C          1.4001289054        0.7993535466        2.4998788865
 C          1.9130592912        0.0538587451        1.4453775116
 N          3.2739662806        0.1534781957        1.1053722131
 S          3.7548319788        0.0433339641       -0.5090363401
 O          3.0389087462        1.0015824308       -1.3208765789
 O          3.6848200149       -1.3339229627       -0.9268301420
 C          5.4629901033        0.5314938071       -0.3462002528
 C          5.8256754691        1.8372876318       -0.6170942076
 C          7.1511321664        2.2116180546       -0.4610236148
 C          8.0858326246        1.2796729548       -0.0357658201
 C          7.7071420933       -0.0277501808        0.2312002431
 C          6.3839949826       -0.4088319521        0.0753325834
 H          6.0449571448       -1.4144404395        0.2614277431
 H          8.4373758463       -0.7501517624        0.5585124358
 H          9.1165622538        1.5734587823        0.0848993805
 H          7.4490097480        3.2261158516       -0.6719051108
 H          5.0663380053        2.5246207061       -0.9544889214
 H          3.7231932085        0.9420112189        1.5518726145
 H          2.0341222404        1.4884548842        3.0370974067
 H         -0.3316991008        1.2155308865        3.6789515152
 H         -1.7834077415       -0.3406450273        2.4315535576
 C         -1.1724782763       -1.8962583204        0.3476512171
 H         -1.4349618393       -2.7244020212        1.0231848544
 C         -0.5618026607       -2.4743856250       -0.9122354862
 C          0.2770592620       -3.7138658729       -0.8462018172
 C         -1.0924130637       -3.7670658925       -1.4521320322
 H         -1.1819229703       -3.8809939547       -2.5220474356
 H         -1.8819536154       -4.2478561454       -0.8926744089
 H          1.1362618300       -3.7868585234       -1.4963485636
 H          0.4193495561       -4.1681273161        0.1228240804
 H         -0.2839107399       -1.7090546895       -1.6296078185
 O         -1.3978747594        0.5732255823       -1.1145832863
