  62
        -98.93178689
 C          2.3822107273        1.1590472932        0.3199861673
 C          2.4910076268       -0.0847943058        0.9954736886
 C          3.6991190992       -0.8761883983        0.7302975282
 C          4.6368486458       -0.3923838855       -0.1035945729
 C          5.9622355301       -1.0234310015       -0.4402033695
 C          5.9098325146       -2.3631978058       -1.1988565136
 C          5.9622389499       -3.6024157618       -0.2969243992
 H          6.5969126061       -4.3544979148       -0.7698453787
 H          6.4437706448       -3.3322629714        0.6436022233
 C          4.6162461960       -4.2734264351       -0.0070018118
 H          4.7594234092       -4.9661093121        0.8251252101
 H          4.3157381985       -4.8620735434       -0.8767657204
 C          3.4591706589       -3.3316874049        0.3281359452
 H          3.1034354027       -2.8448509311       -0.5834103201
 H          2.6250832545       -3.9316291075        0.6985427705
 C          3.7984083166       -2.2362038216        1.3575927422
 H          3.0740026176       -2.2560620386        2.1744838243
 H          4.7920457738       -2.3943644777        1.7748319714
 H          6.7784273617       -2.3858574343       -1.8588055849
 H          5.0226612992       -2.3886148299       -1.8309994001
 H          6.4851909158       -0.2869541712       -1.0535683776
 H          6.5308635011       -1.1528778987        0.4834835601
 O          4.4988512414        0.8062490580       -0.7284033907
 C          3.3766930885        1.6029155205       -0.5523974552
 O          3.4137991816        2.6556325712       -1.2186310987
 H         -1.3316859539        0.9229939794        0.8381964754
 C         -1.1369981610        1.2730170688       -0.1644964294
 C          0.0951587351        1.8307770777       -0.4757714398
 C          0.3289480555        2.2577673509       -1.7789731608
 C         -0.6511179924        2.1189644571       -2.7443644050
 C         -1.8767478049        1.5581862007       -2.4320941163
 C         -2.1240315812        1.1355025112       -1.1308297038
 N         -3.3827602140        0.6146962925       -0.7842372084
 S         -3.5056605799       -0.5919003750        0.3888224251
 O         -3.3216308862        0.0011508344        1.6890643038
 O         -2.6456152730       -1.7052330872        0.0538216981
 C         -5.2183042764       -1.0418807703        0.1783903452
 C         -6.1843496279       -0.1918509099        0.6835564038
 C         -7.5200465954       -0.5133108856        0.5037067752
 C         -7.8662346405       -1.6732782810       -0.1737972673
 C         -6.8859977922       -2.5177242366       -0.6725576750
 C         -5.5476640898       -2.2009620761       -0.4976915964
 H         -4.7513170903       -2.8301765175       -0.8617506299
 H         -7.1580045296       -3.4202994881       -1.1957244503
 H         -8.9066399746       -1.9218514523       -0.3116314503
 H         -8.2849041929        0.1394184883        0.8924446507
 H         -5.8674224418        0.6926645339        1.2108691836
 H         -3.9414513193        0.3844077398       -1.5953143638
 H         -2.6393984054        1.4523612016       -3.1887482816
 H         -0.4567865603        2.4487809956       -3.7539022374
 H          1.2880516201        2.6847599818       -2.0278292825
 C          1.1384316272        1.9828337812        0.6061741995
 H          0.7189636557        1.5520749402        1.5263157574
 C          1.4294610144        3.4505001869        0.8561598725
 C          0.4263429089        4.2654414975        1.6136583853
 C          1.7372723403        3.9107317990        2.2476829780
 H          2.4752145131        4.6873838411        2.3810433104
 H          1.7402512690        3.1660579874        3.0306992484
 H         -0.4606841071        3.7605495433        1.9669018716
 H          0.2609343545        5.2882059962        1.3121805810
 H          1.9609185025        3.9288307437        0.0441536289
 O          1.6217231791       -0.5074304940        1.8063826428
