  62
        -98.94288431
 C         -2.6211207073       -1.2029137773        0.2335667826
 C         -2.7695222519       -0.3199576560       -0.8633354454
 C         -3.8343818516        0.6878542026       -0.7396458850
 C         -4.6004363798        0.7166891137        0.3651939049
 C         -5.6790835672        1.7228431926        0.6402708064
 C         -5.1268864416        2.9360118366        1.4017867752
 C         -3.8576246735        3.5258600686        0.7869666924
 H         -3.5781728023        4.3936473788        1.3882238503
 H         -3.0468440168        2.7989691900        0.8763548903
 C         -4.0004623540        3.9469619571       -0.6823427071
 H         -3.5398706105        4.9286315293       -0.8117704114
 H         -5.0557470415        4.0484829141       -0.9381558430
 C         -3.3263616135        3.0042265550       -1.6810680539
 H         -2.2922771575        2.8252221589       -1.3749983159
 H         -3.2976322016        3.5032402603       -2.6535401857
 C         -4.0113147337        1.6466533079       -1.8838213319
 H         -5.0708152487        1.7975124270       -2.0998731822
 H         -3.5492559049        1.1676081820       -2.7520565613
 H         -5.9041071884        3.7013272244        1.4411962818
 H         -4.9000773891        2.6283488195        2.4251228245
 H         -6.1203919523        2.0417710744       -0.3019627538
 H         -6.4486473799        1.2433903798        1.2475156115
 O         -4.4418245762       -0.1556738101        1.3917258160
 C         -3.4550909824       -1.1232656952        1.3552242724
 O         -3.4221629519       -1.8534978140        2.3655171256
 O         -2.0625490401       -0.3469944730       -1.9078492978
 C         -1.5813157418       -2.3125938299        0.2836956921
 C         -0.2078062400       -1.7856286540        0.6270134305
 C          0.4399162029       -2.1949475523        1.7867881018
 C          1.7089215292       -1.7311997590        2.0863108895
 C          2.3555808312       -0.8486301080        1.2397381689
 C          1.7159941164       -0.4308848111        0.0799990302
 C          0.4463852301       -0.9031801886       -0.2208755352
 H         -0.0483808770       -0.5724549097       -1.1223117004
 N          2.3539992033        0.4842599804       -0.7769568612
 S          3.9048600313        0.1156837118       -1.3041865473
 O          4.0724140504        0.8490748689       -2.5397566217
 O          4.1165002914       -1.3120856973       -1.3707208621
 C          4.9637420064        0.8284862898       -0.0622129458
 C          4.8244702865        2.1728670661        0.2221519248
 C          5.6509813621        2.7438244510        1.1766691426
 C          6.6002012592        1.9665838583        1.8238419578
 C          6.7300977393        0.6191280086        1.5243762321
 C          5.9050398428        0.0413885777        0.5718664931
 H          5.9653370987       -1.0030450653        0.3104669434
 H          7.4687140788        0.0167005829        2.0283156517
 H          7.2424998036        2.4139331582        2.5659066966
 H          5.5525704507        3.7912485984        1.4125481300
 H          4.0777394190        2.7423598275       -0.3056527152
 H          1.7747897909        0.7690835432       -1.5543170110
 H          3.3433294629       -0.4830160347        1.4687476405
 H          2.1995594293       -2.0587715232        2.9901587564
 H         -0.0633395493       -2.8748044547        2.4589726421
 H         -1.8982997911       -2.9720939635        1.1025260045
 C         -1.5335500208       -3.1314108779       -0.9929736419
 C         -0.9878860770       -4.5252174080       -0.9418086398
 C         -2.4554469292       -4.3012567255       -1.1486421499
 H         -2.8779319693       -4.4980237064       -2.1225639318
 H         -3.1252362698       -4.5212866990       -0.3298116106
 H         -0.3970279742       -4.8772927851       -1.7736068197
 H         -0.6631664477       -4.9004437913        0.0169282363
 H         -1.3266031304       -2.5422507497       -1.8766735106
