  62
        -98.94318348
 C         -0.7863343434       -1.8826904871        0.1566410289
 C         -1.4511021804       -1.1567222775        1.1697210191
 C         -2.7070920831       -0.4885010909        0.7867904114
 C         -3.1452740377       -0.6027414783       -0.4790237570
 C         -4.3517312692        0.0514555240       -1.0940327465
 C         -3.9686577360        1.3934779099       -1.7428168050
 C         -4.0507845042        2.6014396173       -0.8119347119
 H         -3.6617004072        3.4605800243       -1.3633169287
 H         -5.0969516346        2.8055419778       -0.5720362900
 C         -3.2575592226        2.4595527409        0.4890073470
 H         -2.2882463855        2.0111812204        0.2608507614
 H         -3.0608125049        3.4626310598        0.8738413339
 C         -3.9973253407        1.6479059843        1.5630257496
 H         -5.0385758990        1.5316081631        1.2624075498
 H         -4.0063723813        2.2131581823        2.4974775168
 C         -3.3981928123        0.2719479564        1.8861503860
 H         -2.6376719673        0.3816697776        2.6660363680
 H         -4.1834952984       -0.3659000965        2.3062986018
 H         -2.9479019614        1.3085255481       -2.1268896776
 H         -4.6272021565        1.5739594743       -2.5952698817
 H         -4.7072848401       -0.6246383999       -1.8744944646
 H         -5.1397155032        0.1821027884       -0.3577978605
 O         -2.4835598301       -1.3286481739       -1.4218549311
 C         -1.2848847517       -1.9629229387       -1.1435191518
 O         -0.7788955334       -2.5583822400       -2.1141114381
 O         -1.0058788042       -1.0562625059        2.3460412914
 C          0.5532472362       -2.5188272126        0.4693900154
 C          1.6558429730       -1.8897880018       -0.3507220842
 C          2.8225472454       -2.5672512628       -0.6869778045
 C          3.8117215416       -1.9345862153       -1.4198556858
 C          3.6704409422       -0.6190591044       -1.8242974079
 C          2.5079916956        0.0674567929       -1.4924532272
 C          1.5232614980       -0.5699628360       -0.7554908269
 H          0.6161997617       -0.0345312751       -0.5277360571
 N          2.3040846827        1.3916085616       -1.8977766899
 S          1.2929941278        2.4161321967       -1.0566030493
 O         -0.0854935356        2.0375056165       -1.2400678447
 O          1.6544799963        3.7331268275       -1.5372404231
 C          1.7793529102        2.2489468086        0.6510652107
 C          3.0660998043        2.6210547554        0.9904490235
 C          3.4873903445        2.4629156556        2.3000956247
 C          2.6219198774        1.9303299452        3.2443762480
 C          1.3316462142        1.5692197651        2.8908457424
 C          0.9040100665        1.7329999797        1.5830462682
 H         -0.0929424759        1.4520618286        1.2818113626
 H          0.6536046624        1.1413568848        3.6121043254
 H          2.9530164881        1.7965408661        4.2621226827
 H          4.4886976823        2.7480650816        2.5800564258
 H          3.7084678173        3.0367022542        0.2313299819
 H          3.0969810216        1.8592404454       -2.3085609790
 H          4.4410371155       -0.1317255177       -2.4012172928
 H          4.7094931474       -2.4742961879       -1.6801811565
 H          2.9518145079       -3.5930404430       -0.3823412939
 H          0.7470601792       -2.2847538281        1.5279444100
 C          0.4888624665       -4.0248940626        0.3102538315
 C          1.2610814368       -4.9231639142        1.2286847325
 C         -0.2290735383       -4.8298018605        1.3509398114
 H         -0.8311059492       -5.6669682231        1.0311608700
 H         -0.6414350541       -4.2924564750        2.1925985912
 H          1.6837026590       -5.8310490716        0.8252257329
 H          1.8581537522       -4.4597296735        1.9995457308
 H          0.3706222762       -4.3266141007       -0.7243200276
