  62
        -98.94378767
 C         -1.7228411636       -0.4110609630        0.3192909006
 C         -2.5822930027       -0.2968254048       -0.8008704190
 C         -3.7408506854        0.5899783385       -0.6242158180
 C         -3.8916938049        1.2807574899        0.5196848113
 C         -5.0047339630        2.2426012094        0.8354262674
 C         -6.2810834417        1.5704822559        1.3599530050
 C         -7.0895540717        0.8030298662        0.3130916839
 H         -8.0575843587        0.5725136381        0.7624138319
 H         -7.2753942212        1.4489692334       -0.5455894673
 C         -6.4385035043       -0.5057771744       -0.1555679492
 H         -5.6655709035       -0.8033405186        0.5566816492
 H         -7.1871136483       -1.3011316348       -0.1661014927
 C         -5.8244791401       -0.4430767020       -1.5542011797
 H         -5.3609967429       -1.4093404123       -1.7684217501
 H         -6.6115126786       -0.2762266197       -2.2929158537
 C         -4.7552101247        0.6438186872       -1.7263813705
 H         -5.2218269620        1.6278045495       -1.7680205501
 H         -4.2308121611        0.4647200860       -2.6682257510
 H         -6.0111231850        0.8976446247        2.1771719760
 H         -6.9164054089        2.3570928344        1.7736696271
 H         -5.2408197104        2.8335711210       -0.0500701491
 H         -4.6257206512        2.9134488022        1.6095878415
 O         -3.0021822750        1.1981977515        1.5453863929
 C         -1.9108767721        0.3497557722        1.4746721696
 O         -1.1825862159        0.3674532560        2.4892282820
 O         -2.4044733771       -0.8971432429       -1.8911496222
 C         -0.4990006332       -1.3129275163        0.2855886957
 C          0.5361338222       -0.6805119868       -0.6121708680
 C          0.8572589244       -1.1539952183       -1.8766957078
 C          1.8153785973       -0.5103011456       -2.6422622008
 C          2.4810642194        0.6016676685       -2.1595357892
 C          2.1667380270        1.0800210062       -0.8939639019
 C          1.1988846728        0.4438183502       -0.1344090731
 H          0.9490072215        0.8191420265        0.8503460592
 N          2.8943397720        2.1740193720       -0.3687334547
 S          4.5158569440        1.8125412534       -0.1062699885
 O          4.9633076000        2.7196336722        0.9266553455
 O          5.2210188501        1.8825082807       -1.3605738247
 C          4.4821729001        0.1295674957        0.4851205046
 C          4.0557113590       -0.0980674770        1.7783992163
 C          3.9053962890       -1.4041464894        2.2149676531
 C          4.1721535139       -2.4546090964        1.3501981783
 C          4.6032181223       -2.2095329077        0.0557492325
 C          4.7587094207       -0.9053292330       -0.3851793913
 H          5.0878577004       -0.6708326877       -1.3838856996
 H          4.8093367368       -3.0290944341       -0.6133512996
 H          4.0434948246       -3.4706910208        1.6893736472
 H          3.5697124200       -1.5964507041        3.2216401790
 H          3.8547151249        0.7437094331        2.4223291012
 H          2.4921820573        2.5303583164        0.4875626081
 H          3.2467904449        1.1003751719       -2.7316693845
 H          2.0510533703       -0.8846581293       -3.6266613631
 H          0.3479748853       -2.0189323649       -2.2670780357
 H         -0.0957145612       -1.3033036908        1.3077177238
 C         -0.8383437529       -2.7397521338       -0.0859030772
 C          0.1741864171       -3.8127895655        0.1772435654
 C         -1.0734720529       -3.7400746061        1.0038313136
 H         -1.8353329776       -4.4909208103        0.8566661471
 H         -0.9929459108       -3.3964197468        2.0249924504
 H          0.2715678688       -4.6172373264       -0.5352421439
 H          1.1047357934       -3.5114810861        0.6344672525
 H         -1.4501006604       -2.8191120222       -0.9753756717
