  62
        -98.94488609
 C          1.9302045112       -0.4234496226        0.6736406810
 C          2.9750793997       -1.2810299430        0.2528252528
 C          4.3264540808       -0.7128926198        0.2996598617
 C          4.5062188532        0.5442122427        0.7445083483
 C          5.8259720557        1.2549604614        0.8766126989
 C          6.3158164971        1.9094613660       -0.4224479630
 C          6.8178429446        0.9377603227       -1.4912378527
 H          7.3277139980        1.5332961561       -2.2511391528
 H          7.5579384113        0.2678367656       -1.0524420407
 C          5.7124320701        0.1153766189       -2.1681105708
 H          4.7434368568        0.5827148785       -1.9776307067
 H          5.8638038943        0.1226683285       -3.2498866530
 C          5.6520383203       -1.3476516685       -1.7288187520
 H          4.8134412753       -1.8253856012       -2.2416619060
 H          6.5677824477       -1.8595138304       -2.0326170519
 C          5.4592749800       -1.5461480516       -0.2195540392
 H          6.3808513380       -1.3100255767        0.3118176550
 H          5.2097453208       -2.5947875135       -0.0404225726
 H          5.5064984024        2.5176415106       -0.8332154667
 H          7.1356243155        2.5818222638       -0.1591212331
 H          5.6826096343        2.0384569485        1.6238602925
 H          6.5818513523        0.5597013315        1.2429666327
 O          3.4765117948        1.3308365990        1.1568537350
 C          2.1644001403        0.8792586052        1.1132941139
 O          1.3230649374        1.7164947780        1.4911636151
 O          2.7861712701       -2.4622074574       -0.1430994757
 C          0.5027908100       -0.9412930608        0.6394225564
 C         -0.3269108833       -0.0764660986       -0.2759229987
 C          0.0887747883        0.0775049252       -1.5973095814
 C         -0.6118900477        0.8852237840       -2.4701240687
 C         -1.7516560779        1.5484096439       -2.0482187934
 C         -2.1792653006        1.3978436025       -0.7354678285
 C         -1.4715122248        0.5833464722        0.1403376360
 H         -1.8173393576        0.5027641782        1.1565487109
 N         -3.3229547330        2.0729944852       -0.2797248423
 S         -4.4690574700        1.2794422847        0.6412687089
 O         -5.6314615869        2.1384104935        0.5893163608
 O         -3.9513780870        0.9858866437        1.9524538712
 C         -4.7878430434       -0.2273846296       -0.2573906796
 C         -4.1356245081       -1.3896534280        0.0999040438
 C         -4.3445970505       -2.5325066285       -0.6561960908
 C         -5.1957342739       -2.4934633281       -1.7495519332
 C         -5.8467283559       -1.3181172529       -2.0932226697
 C         -5.6390285498       -0.1716822067       -1.3441865214
 H         -6.1334246875        0.7591828895       -1.5702692533
 H         -6.5115730088       -1.2921732226       -2.9415155695
 H         -5.3539573617       -3.3853726652       -2.3350659362
 H         -3.8406614473       -3.4476717361       -0.3889112906
 H         -3.4852327358       -1.3829191128        0.9586751702
 H         -3.7655376120        2.6563529295       -0.9746567028
 H         -2.2972008922        2.1877155960       -2.7255896036
 H         -0.2719789503        0.9999395271       -3.4883492052
 H          0.9806245719       -0.4392699597       -1.9248407147
 H          0.5714251956       -1.9459943975        0.1965182206
 C         -0.0502101449       -1.0664985357        2.0423579433
 C         -1.0925421498       -2.0977451880        2.3508860327
 C          0.3068273933       -2.2711556328        2.8586628968
 H          0.4962247106       -2.1405789739        3.9135657055
 H          0.9309548460       -3.0192535014        2.3919743679
 H         -1.8708071446       -1.8480716887        3.0571998955
 H         -1.4119660046       -2.7386526452        1.5428067014
 H         -0.1025907914       -0.1158261660        2.5616833956
