  62
        -98.94052566
 C          1.8020625010        0.0817441552        0.9496768793
 C          3.1545278995       -0.0784286901        1.3456123240
 C          4.1673200180        0.4066248234        0.4018254152
 C          3.7824015451        0.9532990799       -0.7654697192
 C          4.6925074357        1.5185347763       -1.8218691241
 C          5.2605771178        0.4671556050       -2.7849354528
 C          6.3323796534       -0.4478376865       -2.1911610019
 H          6.7940377475       -0.9826336857       -3.0236510720
 H          7.1089110094        0.1588284255       -1.7240957298
 C          5.8003251567       -1.4737279069       -1.1806476138
 H          4.7172323766       -1.5655492756       -1.2915100893
 H          6.2272656955       -2.4552821960       -1.3988331656
 C          6.1240846011       -1.1535139348        0.2787482566
 H          7.2050994826       -1.1908541124        0.4306504386
 H          5.6694658238       -1.9231951951        0.9078566945
 C          5.6107404455        0.2115930862        0.7551107832
 H          6.2180899771        1.0107235167        0.3303375146
 H          5.6951728888        0.2478792552        1.8440992736
 H          5.6989084093        1.0027842124       -3.6301973677
 H          4.4357493860       -0.1384745821       -3.1678298791
 H          4.0956602658        2.2269998273       -2.4003432396
 H          5.5120883398        2.0598417451       -1.3482052138
 O          2.4764737830        1.0716932227       -1.1188360080
 C          1.4544845590        0.6218758159       -0.2894414737
 O          0.3179290761        0.7661648750       -0.7730454289
 O          3.4971926444       -0.6048389912        2.4376382114
 C          0.7304244395       -0.4188921260        1.9007696919
 C         -0.2950858889       -1.2411293259        1.1601549030
 C          0.1446088331       -2.2699579625        0.3302082099
 C         -0.7502170876       -3.0336556528       -0.3928725236
 C         -2.1119480306       -2.8064683210       -0.2883082496
 C         -2.5629645732       -1.7998150500        0.5518109135
 C         -1.6597461014       -1.0236871416        1.2691760227
 H         -2.0344648163       -0.2313320837        1.8982758965
 N         -3.9535508977       -1.5847445818        0.6749415937
 S         -4.7632819463       -0.9344515016       -0.6393756155
 O         -6.1678086153       -0.9893897444       -0.3009109973
 O         -4.3623034744       -1.6392830075       -1.8290643016
 C         -4.2403572844        0.7702893811       -0.7038260756
 C         -5.1152252102        1.7570076378       -0.2909572035
 C         -4.6869475956        3.0742877513       -0.2863968331
 C         -3.3929441968        3.3806749984       -0.6815721061
 C         -2.5273056061        2.3781299757       -1.0895282375
 C         -2.9510582174        1.0587286062       -1.1029256204
 H         -2.2813071163        0.2704268851       -1.4061861417
 H         -1.5128206902        2.5955005936       -1.3835396410
 H         -3.0554371895        4.4052990793       -0.6702031662
 H         -5.3587363300        3.8564827000        0.0290817241
 H         -6.1101341889        1.4717472040        0.0110891531
 H         -4.2046893272       -1.0601867687        1.5019010881
 H         -2.8248315564       -3.3806224583       -0.8568929836
 H         -0.3871386459       -3.8161987328       -1.0424259396
 H          1.2076715098       -2.4531637108        0.2461468673
 H          1.2718963622       -1.0952987344        2.5839872265
 C          0.1159606815        0.6704281143        2.7693634376
 C          0.8100188059        1.9806290004        2.9881825682
 C         -0.4495404942        1.9273312642        2.1794907859
 H         -1.3520953757        2.3385398494        2.6081441098
 H         -0.3809291156        2.0455215332        1.1099198046
 H          0.7734474205        2.4186646947        3.9744359160
 H          1.7436398005        2.1486145485        2.4712510921
 H         -0.4029436970        0.2598717946        3.6303748786
