  62
        -98.94059139
 C         -1.7610168837       -0.5902061028        1.0610791665
 C         -1.9270290347       -0.3139851608       -0.3191013974
 C         -3.2969425853       -0.4544632205       -0.8344529078
 C         -4.2923288529       -0.8319137291       -0.0132569670
 C         -5.7311110434       -1.0415086759       -0.4002375746
 C         -6.5667445582        0.2458399098       -0.4119292459
 C         -6.2725439892        1.2017418389       -1.5688779963
 H         -6.3264539934        0.6566816777       -2.5117675861
 H         -7.0697726654        1.9477382222       -1.5780741804
 C         -4.9219482873        1.9244331552       -1.4659259624
 H         -4.5489433518        1.8554440796       -0.4413824884
 H         -5.0594208884        2.9859649656       -1.6839846988
 C         -3.8475070217        1.4017285823       -2.4196332586
 H         -2.9236763030        1.9545400071       -2.2304438380
 H         -4.1502205007        1.5926151454       -3.4516308715
 C         -3.5421246327       -0.0941442678       -2.2685085788
 H         -4.3583319340       -0.6887761436       -2.6780741154
 H         -2.6299791279       -0.3149654957       -2.8278992463
 H         -6.4193460692        0.7664219343        0.5372639259
 H         -7.6173812813       -0.0480919678       -0.4693655218
 H         -6.1568275801       -1.7211458476        0.3411928214
 H         -5.7820500650       -1.5188533274       -1.3791676331
 O         -4.0914848488       -1.0879284317        1.3073650226
 C         -2.8378746379       -0.9409752754        1.8792641078
 O         -2.8115079556       -1.1475345576        3.1094278513
 O         -0.9959880961        0.0281231696       -1.0909918544
 C         -0.4119775004       -0.4425647358        1.7437154137
 C          0.2497332487        0.8384309291        1.2991876817
 C         -0.4131166757        2.0432591493        1.5220508795
 C          0.1447389087        3.2412767876        1.1227888848
 C          1.3868647468        3.2666274865        0.5122598319
 C          2.0588624050        2.0717651764        0.2909808681
 C          1.4876182664        0.8675914394        0.6791700871
 H          2.0152298166       -0.0484805866        0.4755876731
 N          3.3092751280        2.0570403229       -0.3425624021
 S          4.4865781795        0.9798317488        0.1484678542
 O          4.4290314510        0.7376675652        1.5719579640
 O          5.7252627706        1.5452539313       -0.3444835480
 C          4.1517140402       -0.5249259087       -0.7421184521
 C          3.6903092833       -0.4546697055       -2.0412838663
 C          3.4773483595       -1.6327335106       -2.7390288069
 C          3.7361326476       -2.8532804764       -2.1344068866
 C          4.2032723263       -2.9067458906       -0.8300906201
 C          4.4137893655       -1.7321697625       -0.1249275685
 H          4.7639134460       -1.7282681881        0.8951779627
 H          4.4014530736       -3.8569673608       -0.3597377463
 H          3.5685817748       -3.7683211710       -2.6804315114
 H          3.1079525094       -1.5952380570       -3.7511809385
 H          3.4934439598        0.5089431523       -2.4804897586
 H          3.6917317761        2.9632488738       -0.5683314274
 H          1.8274984640        4.2023630431        0.2029844318
 H         -0.3863479863        4.1658411959        1.2938380173
 H         -1.3816898305        2.0238098837        2.0044408317
 H         -0.6447779547       -0.3412944443        2.8173200988
 C          0.4913494356       -1.6593392981        1.6093841755
 C         -0.0846720436       -3.0379213347        1.4904417847
 C          0.6239225706       -2.4190170711        0.3250159457
 H          1.5982691507       -2.7988483900        0.0546197616
 H          0.0397706811       -2.0810299859       -0.5156225478
 H          0.4004326961       -3.8420906818        2.0228324769
 H         -1.1605329398       -3.1280261553        1.4502036149
 H          1.3881076265       -1.5636642326        2.2154386905
