  62
        -98.93858041
 C          2.1416576301        0.8781734080        0.0067164713
 C          2.9358666109        0.2939222423        1.0198142831
 C          3.6826749180       -0.9196975915        0.6492266873
 C          3.5522770273       -1.4192903631       -0.5918513203
 C          4.1803842654       -2.6616632416       -1.1730166686
 C          5.6577342643       -2.9266037865       -0.8513595122
 C          6.5247121836       -1.6685099559       -0.6966459957
 H          5.9763718444       -0.7912804913       -1.0442718223
 H          7.4107207960       -1.7692471520       -1.3261366776
 C          6.9943494422       -1.4403941620        0.7421412053
 H          7.8685124163       -0.7851547763        0.7262398854
 H          7.3109017578       -2.3973179223        1.1627631150
 C          5.9662224171       -0.8000035151        1.6737726275
 H          5.8112246597        0.2448846151        1.3917078166
 H          6.3812417890       -0.8006975894        2.6844881446
 C          4.5883938875       -1.4814131450        1.7074486444
 H          4.1182495108       -1.2407191842        2.6649700055
 H          4.6799953274       -2.5619401628        1.6282524427
 H          6.0500716381       -3.5420684762       -1.6626584501
 H          5.7316101383       -3.5226381501        0.0571994473
 H          3.5846102343       -3.5234337351       -0.8571939764
 H          4.0525416724       -2.5637835054       -2.2538487066
 O          2.7507856160       -0.8386684764       -1.5307263821
 C          2.0361815241        0.3198958939       -1.2662007445
 O          1.3610738710        0.7385760194       -2.2254184443
 H         -0.0644807859        0.0037921126        1.0112915649
 C         -0.6894464231        0.7451111682        0.5274275657
 C         -0.1135994519        1.9305903633        0.0878991625
 C         -0.9289765614        2.8697708653       -0.5301919861
 C         -2.2775719608        2.6164389422       -0.7122176197
 C         -2.8435406620        1.4314357641       -0.2803295254
 C         -2.0381947542        0.4853884661        0.3402196931
 N         -2.6024694428       -0.7186717842        0.7961924977
 S         -3.5976395791       -1.5842282394       -0.2439074395
 O         -3.5078287806       -2.9557955138        0.2092914303
 O         -3.2693226652       -1.3411029198       -1.6290686486
 C         -5.2253957825       -0.9603428078        0.1215052614
 C         -6.0058818778       -0.4337591435       -0.8888543434
 C         -7.2704365402        0.0429928955       -0.5794134070
 C         -7.7296281203       -0.0158427886        0.7274330216
 C         -6.9345715259       -0.5510199322        1.7300887111
 C         -5.6701223263       -1.0299602272        1.4273286466
 H         -5.0225618762       -1.4565247665        2.1750018393
 H         -7.2950746625       -0.5959262702        2.7451209677
 H         -8.7131499184        0.3571172358        0.9658767263
 H         -7.8899987183        0.4583191123       -1.3579248824
 H         -5.6047725760       -0.4045449083       -1.8896783244
 H         -1.9367089075       -1.3335638926        1.2416165962
 H         -3.8911385601        1.2269677453       -0.4281807785
 H         -2.8972004841        3.3533822919       -1.1998790372
 H         -0.5068490749        3.7977972158       -0.8788820802
 C          1.3629623411        2.1425763900        0.3169999908
 H          1.5188521578        2.3254767388        1.3911844454
 C          1.9329757306        3.3100658911       -0.4621375703
 C          1.8801512199        4.6980439520        0.1009755614
 C          3.1854996387        3.9657302810        0.0347778932
 H          3.9231302475        4.2835422955       -0.6868481252
 H          3.6091438597        3.5885576890        0.9542661809
 H          1.4220876677        4.8274059506        1.0697353955
 H          1.7232057640        5.5234149431       -0.5769540705
 H          1.8247168065        3.1841491407       -1.5339200017
 O          3.0074066385        0.7569071280        2.1903012166
