  62
        -98.94292974
 C         -1.9985290888       -1.0281159836        0.3966954043
 C         -2.6118036797        0.0198441932        1.1326883057
 C         -4.0367874388        0.2505254083        0.8755915060
 C         -4.6898427683       -0.5347962815        0.0002919737
 C         -6.1509640969       -0.4512275493       -0.3488628903
 C         -6.4785039987        0.5956181649       -1.4222377487
 C         -6.3888625585        2.0505484605       -0.9601543142
 H         -6.8514767107        2.6627075707       -1.7368665458
 H         -6.9773224336        2.1792585515       -0.0511871195
 C         -4.9574616552        2.5528913615       -0.7242453309
 H         -4.2486510797        1.8797261615       -1.2123009691
 H         -4.8347161164        3.5349147461       -1.1866852541
 C         -4.5691637502        2.6952142903        0.7476529788
 H         -3.5261280858        3.0192568270        0.7970743169
 H         -5.1835393703        3.4674573502        1.2161808713
 C         -4.7024713359        1.4031956163        1.5643700639
 H         -5.7535865515        1.1812692430        1.7485097302
 H         -4.2018089927        1.5513245457        2.5244951088
 H         -5.8125295205        0.4425977859       -2.2744881356
 H         -7.5000259887        0.4067567649       -1.7601172402
 H         -6.4360246914       -1.4346481714       -0.7287103099
 H         -6.7307516180       -0.2447093181        0.5512270006
 O         -4.0747142720       -1.5414091023       -0.6703047011
 C         -2.7195334421       -1.8021860395       -0.5134844185
 O         -2.3130069736       -2.7371156332       -1.2296813390
 O         -1.9962503402        0.7234886378        1.9786611372
 C         -0.5197483686       -1.2668572515        0.6550678506
 C          0.3319258253       -0.6183209352       -0.4104174497
 C          0.3129118879       -1.0617824855       -1.7296280380
 C          1.0950964637       -0.4431577699       -2.6869547372
 C          1.9231979365        0.6130422756       -2.3478891446
 C          1.9497096819        1.0643133971       -1.0344105298
 C          1.1514217712        0.4509940746       -0.0774635517
 H          1.1715328947        0.8240825087        0.9357334964
 N          2.7800610023        2.1375259749       -0.6587324602
 S          3.8649752008        1.9128404286        0.5964101031
 O          3.1571464183        1.7274298605        1.8363039934
 O          4.7548909731        3.0498557953        0.5247782567
 C          4.7422230009        0.4245560865        0.1525895024
 C          4.2019881924       -0.8002749737        0.4899949796
 C          4.8454940968       -1.9538869813        0.0711431034
 C          6.0121422674       -1.8636085294       -0.6723743839
 C          6.5447862641       -0.6256969940       -0.9996383674
 C          5.9021305287        0.5312738449       -0.5899030148
 H          6.2827274073        1.5138993240       -0.8175146988
 H          7.4543987585       -0.5592633979       -1.5745248971
 H          6.5092461943       -2.7641992123       -0.9966139931
 H          4.4290651118       -2.9152648592        0.3255531072
 H          3.2950357508       -0.8325097721        1.0708359983
 H          3.2492351889        2.5794022885       -1.4370209333
 H          2.5371857863        1.0917675826       -3.0958193723
 H          1.0656534310       -0.7921333675       -3.7079870148
 H         -0.3371844651       -1.8796317697       -1.9989469763
 H         -0.3123629351       -0.7503368836        1.6027324484
 C         -0.1664568601       -2.7314255294        0.8227848240
 C          1.0278629027       -3.1029829215        1.6472449726
 C         -0.3531202827       -3.3782219341        2.1607899712
 H         -0.7012971547       -4.3995227074        2.1944875708
 H         -0.7302337790       -2.7626136381        2.9648763244
 H          1.6328452397       -3.9384011442        1.3307557654
 H          1.5847046754       -2.3036045823        2.1137361141
 H         -0.3849279708       -3.3324342868       -0.0497048091
