  62
        -98.93770983
 C         -1.9646642532       -1.0229493829        0.0539981859
 C         -2.3102555919       -0.0597478706        1.0287443011
 C         -2.4574736470        1.3223276625        0.5518991276
 C         -2.2311834527        1.5929036530       -0.7467258871
 C         -2.3998874273        2.9371139865       -1.3970553423
 C         -3.8962878039        3.2295306868       -1.6295026343
 C         -4.4419264318        4.4066214404       -0.8207862439
 H         -4.1001214280        5.3384131848       -1.2758915062
 H         -5.5307045399        4.3800214516       -0.8992164852
 C         -4.0494069095        4.4369789904        0.6593495760
 H         -4.7086681642        5.1568047768        1.1489660352
 H         -3.0342762876        4.8232202935        0.7626122794
 C         -4.1411688348        3.0993411508        1.4046964988
 H         -4.5260204424        3.2947770567        2.4075803822
 H         -4.8516872059        2.4331313942        0.9151962776
 C         -2.7966721042        2.3679292773        1.5784648043
 H         -1.9833417326        3.0977623542        1.6334534966
 H         -2.8124524402        1.8274360678        2.5298700578
 H         -4.4608970262        2.3267040819       -1.3879224859
 H         -4.0661302846        3.4328423960       -2.6877897555
 H         -1.9495171784        3.7037956204       -0.7701698093
 H         -1.8632175551        2.9052119879       -2.3455761393
 O         -1.8954800183        0.6400794732       -1.6546816000
 C         -1.7316659544       -0.6830870264       -1.2783710997
 O         -1.4023481918       -1.4465561666       -2.2067186393
 H          0.4372683595       -0.9798276555        0.9005088007
 C          0.6925570026       -1.9347520633        0.4625724318
 C         -0.3107974279       -2.8534698272        0.1809249269
 C          0.0476714212       -4.0795557403       -0.3641526502
 C          1.3734953552       -4.3566098955       -0.6507397365
 C          2.3619741116       -3.4197247572       -0.4142968685
 C          2.0152968091       -2.1972802159        0.1510334870
 N          2.9916064965       -1.2233121604        0.4292272894
 S          2.5617872710        0.3991105905        0.2309179092
 O          1.9085945108        0.8576261196        1.4324687239
 O          1.8378022168        0.5837612896       -1.0067850463
 C          4.1821402094        1.1370164171        0.1155442221
 C          4.8480886068        1.4742355116        1.2785809526
 C          6.1235119834        2.0092895668        1.1892601825
 C          6.7092098602        2.1957210064       -0.0540681734
 C          6.0276451379        1.8550224877       -1.2129215360
 C          4.7521903505        1.3186269643       -1.1305580637
 H          4.1798803470        1.0476059602       -2.0035857197
 H          6.4832909118        2.0043377100       -2.1784598341
 H          7.7019472030        2.6118011879       -0.1209559423
 H          6.6545730373        2.2783996108        2.0879354845
 H          4.3477328531        1.3182277849        2.2200257822
 H          3.8780486990       -1.4235422248       -0.0147049847
 H          3.3914008104       -3.6281640167       -0.6630864316
 H          1.6376765853       -5.3101385813       -1.0823257545
 H         -0.7125462234       -4.8128434274       -0.5781069227
 C         -1.7364710971       -2.4605016950        0.4837320095
 H         -1.8719762605       -2.4657657358        1.5761755485
 C         -2.7642196968       -3.3798137694       -0.1421825101
 C         -3.2056096136       -4.6217836241        0.5715166657
 C         -4.1334796444       -3.4505871257        0.4624631634
 H         -4.9849440004       -3.5229827609       -0.1973056132
 H         -4.3142230572       -2.8543575409        1.3450489238
 H         -2.7636497902       -4.8281473415        1.5345073796
 H         -3.4243881449       -5.5020745979       -0.0138405459
 H         -2.6917239010       -3.4042189153       -1.2238030871
 O         -2.4849806644       -0.3445905953        2.2464282280
