  62
        -98.93912198
 C          2.3815000912        1.2681270944       -0.0194355165
 C          3.1127307045        0.4835429044        0.8995749450
 C          3.7898244111       -0.7144392586        0.3665591955
 C          3.6648432427       -0.9963582220       -0.9438768589
 C          4.2106977991       -2.1849835846       -1.6880504054
 C          3.3864263392       -3.4604355048       -1.4388786047
 C          2.9460257688       -3.6736527903        0.0078707723
 H          2.2592189817       -4.5245263614        0.0240678692
 H          2.3791736362       -2.8014276299        0.3412656808
 C          4.0722886097       -3.9617360162        0.9982009051
 H          4.5775983248       -4.8838535872        0.7022742068
 H          3.6107447287       -4.1345002827        1.9739339858
 C          5.1258574293       -2.8640731969        1.1535956352
 H          5.7961819401       -2.8481495827        0.2987600570
 H          5.7368354975       -3.1220869736        2.0236067303
 C          4.5679387051       -1.4685652296        1.4181915566
 H          5.3991808811       -0.8118372577        1.7027570525
 H          3.9159584513       -1.5068243397        2.2983836451
 H          3.9670734621       -4.3207783772       -1.7752832445
 H          2.4827629455       -3.4017353054       -2.0511264850
 H          5.2548278497       -2.3372377349       -1.4314898728
 H          4.1597592954       -1.9419861139       -2.7515047290
 O          2.9375779012       -0.2162851891       -1.7933405039
 C          2.2717503736        0.9175651555       -1.3648081047
 O          1.6388792649        1.5131168395       -2.2566070254
 O          3.1865689054        0.7586645841        2.1292265400
 C          1.6301166169        2.4878145134        0.4849447449
 C          0.1499958582        2.2620640573        0.2941789888
 C         -0.6923225334        3.1494514870       -0.3607988502
 C         -2.0319515206        2.8439109741       -0.5340485404
 C         -2.5601483499        1.6590247414       -0.0561439360
 C         -1.7277826654        0.7682549292        0.6097099885
 C         -0.3896063451        1.0785149680        0.7847749322
 H          0.2593369896        0.3796325123        1.2994710452
 N         -2.2564121175       -0.4401111527        1.1063995441
 S         -2.9957858882       -1.4557909905       -0.0132228825
 O         -2.8861943298       -2.7838528928        0.5515760852
 O         -2.4496797090       -1.2735513382       -1.3385545141
 C         -4.7015965332       -0.9485769061        0.0262424365
 C         -5.3272314567       -0.5442415866       -1.1365184962
 C         -6.6578971357       -0.1588891252       -1.0814438191
 C         -7.3345277948       -0.1849284885        0.1284455694
 C         -6.6916176736       -0.5954224575        1.2870519268
 C         -5.3622793885       -0.9833685216        1.2388227892
 H         -4.8261672370       -1.3127755065        2.1131249274
 H         -7.2211747956       -0.6142356975        2.2258881306
 H         -8.3693266667        0.1164544425        0.1683427910
 H         -7.1590348907        0.1603474663       -1.9811090154
 H         -4.7575077091       -0.5340698599       -2.0521747447
 H         -1.5899395649       -0.9672327471        1.6534542866
 H         -3.6003196626        1.4146684377       -0.1978574815
 H         -2.6733622438        3.5390632557       -1.0538482001
 H         -0.2981019557        4.0737425091       -0.7494531206
 H          1.8342098992        2.5306155721        1.5651674024
 C          2.1486756228        3.7535698548       -0.1614163721
 C          2.0088800014        5.0682621256        0.5445167818
 C          3.3554990997        4.4228582070        0.4224292244
 H          4.0793420283        4.8572434863       -0.2505464001
 H          3.7927018800        3.9765096256        1.3037430332
 H          1.8098912615        5.9508280865       -0.0442094750
 H          1.5324081637        5.0663501650        1.5130565061
 H          2.0598017846        3.7368167427       -1.2416304528
