  62
        -98.93807893
 C          2.0232697154        0.7769479565        0.6044942111
 C          1.9949570934        0.0271861945       -0.5946603052
 C          2.0383607863       -1.4367602979       -0.4487115629
 C          2.0544732724       -1.9773141926        0.7810841935
 C          2.0322238195       -3.4365530203        1.1635359174
 C          2.9315653289       -4.3929703249        0.3671398573
 C          4.2425567040       -3.7788563459       -0.1453633569
 H          4.4090311883       -2.8085582733        0.3254024815
 H          5.0726011609       -4.4275990445        0.1401812740
 C          4.2725736945       -3.6199937935       -1.6674106581
 H          3.8551368624       -4.5212969477       -2.1211974975
 H          5.3129524219       -3.5414474375       -1.9914904747
 C          3.5352476944       -2.3981091272       -2.2144135408
 H          4.0814702239       -1.4877261991       -1.9535546490
 H          3.5296463581       -2.4677854873       -3.3046957262
 C          2.0878704380       -2.2248975756       -1.7253701405
 H          1.5460326388       -1.6276162174       -2.4638645468
 H          1.5844718628       -3.1834228598       -1.6238388263
 H          2.3742054298       -4.7949831195       -0.4777427618
 H          3.1561427350       -5.2341275218        1.0251363446
 H          2.3171403149       -3.4574116122        2.2183958537
 H          0.9951720670       -3.7809764711        1.1038009719
 O          2.0587472583       -1.2157255687        1.9134428228
 C          2.0347673167        0.1666139189        1.8555896788
 O          2.0338977586        0.7300931913        2.9710793971
 H         -0.4700325225        1.2181319740        0.9387007069
 C         -0.5071733205        1.9854478830        0.1776545873
 C          0.6506909775        2.6758643073       -0.1579622557
 C          0.5735935754        3.6707702949       -1.1235408609
 C         -0.6277357248        3.9349703477       -1.7591579596
 C         -1.7657463820        3.2104400547       -1.4577328522
 C         -1.7029265301        2.2273280884       -0.4757893532
 N         -2.8425151944        1.4833170497       -0.1206955201
 S         -2.6246690258       -0.1259158737        0.3461069895
 O         -2.2805945958       -0.1603975443        1.7469261344
 O         -1.7195953407       -0.8001401966       -0.5567821826
 C         -4.2861774698       -0.7382032519        0.1289495741
 C         -4.6063840181       -1.4471408352       -1.0132290911
 C         -5.9094577331       -1.8876685654       -1.1857535078
 C         -6.8654256986       -1.6098638526       -0.2204055586
 C         -6.5289145115       -0.8972196022        0.9211580135
 C         -5.2277793957       -0.4553302647        1.1005914219
 H         -4.9158099515        0.0930957459        1.9740978961
 H         -7.2739840357       -0.6851325428        1.6708000245
 H         -7.8785656043       -1.9533296141       -0.3571276920
 H         -6.1725671079       -2.4444402227       -2.0706311468
 H         -3.8270357095       -1.6440253112       -1.7320021927
 H         -3.5921471211        1.5730744170       -0.7936119499
 H         -2.6944500553        3.4004378595       -1.9738893481
 H         -0.6729249845        4.7045684931       -2.5147834437
 H          1.4565770442        4.2283433101       -1.3897443876
 C          1.9283375486        2.2911261080        0.5496152179
 H          1.8594847335        2.6304908626        1.5942396998
 C          3.1719436120        2.8835111390       -0.0794980024
 C          3.6430266065        4.2495274957        0.3173389793
 C          4.4030751071        3.0366389772        0.7603976456
 H          5.3631226764        2.8335596714        0.3102305263
 H          4.3341439873        2.7362588045        1.7961462746
 H          3.0650281499        4.7816585284        1.0576997680
 H          4.0864952953        4.8815058546       -0.4371796644
 H          3.3029352293        2.5717346561       -1.1093140791
 O          1.9335215485        0.5542884942       -1.7364655157
