  62
        -98.93835035
 C          1.8798298703        0.7515987601        0.0365564106
 C          2.3984504301       -0.5614951801        0.1073424397
 C          3.8156268100       -0.6808134606        0.4990636298
 C          4.5154403902        0.4335123291        0.7745989506
 C          5.9698502202        0.5348018886        1.1430620408
 C          6.8307995903        0.7874002393       -0.1060714990
 C          7.2749865301       -0.4728716903       -0.8476106399
 H          7.7554648602       -0.1521163097       -1.7748111096
 H          8.0279744800       -0.9931785708       -0.2519022602
 C          6.1559510700       -1.4599422798       -1.1903365406
 H          5.2843095001       -0.9157582294       -1.5586095403
 H          6.5078013999       -2.0947081293       -2.0060162711
 C          5.7534939397       -2.3514971006       -0.0059888713
 H          5.7677421796       -3.3973346104       -0.3199094020
 H          6.5007773397       -2.2556255213        0.7815638088
 C          4.3561797397       -2.0827043207        0.5728357088
 H          3.6177018197       -2.6907062502        0.0404610683
 H          4.3331015396       -2.4113498115        1.6173168086
 H          6.2602660805        1.4303496899       -0.7811947786
 H          7.7258588604        1.3379999089        0.1904204314
 H          6.0625902003        1.3956448581        1.8085224914
 H          6.2964164700       -0.3547607519        1.6732038801
 O          3.9715208004        1.6797994392        0.7009339714
 C          2.6544801805        1.8731405597        0.3298655415
 O          2.2925421507        3.0669244498        0.3056702923
 O          1.7163996599       -1.5890467598       -0.1468098310
 C          0.4345938404        0.9774798706       -0.3696241493
 C         -0.4893622998        0.2278380401        0.5588989701
 C         -0.3018979499        0.3515190191        1.9339114602
 C         -1.1105138601       -0.3285841313        2.8223873497
 C         -2.1373540102       -1.1338736808        2.3604836190
 C         -2.3423729201       -1.2544773598        0.9924021489
 C         -1.5243862299       -0.5714405793        0.1007265695
 H         -1.6994281499       -0.6993100386       -0.9539287206
 N         -3.3742903602       -2.0675796093        0.4952072783
 S         -4.3711696901       -1.4941409783       -0.7183332814
 O         -5.5391501302       -2.3451354481       -0.6601571920
 O         -3.6690842000       -1.4628265775       -1.9750148213
 C         -4.7907011398        0.1578740915       -0.1943887202
 C         -4.1464217596        1.2411896317       -0.7551861294
 C         -4.4353092694        2.5107655714       -0.2797974985
 C         -5.3570415394        2.6734630109        0.7425237815
 C         -6.0008207296        1.5746354806        1.2915442707
 C         -5.7133459098        0.3031650309        0.8234950198
 H         -6.1994516400       -0.5749983093        1.2166801792
 H         -6.7211669697        1.7058090502        2.0828367607
 H         -5.5761793792        3.6631442107        1.1111608522
 H         -3.9373869292        3.3667718917       -0.7069003879
 H         -3.4393423395        1.0742473522       -1.5508277995
 H         -3.9130706504       -2.5365965897        1.2086393179
 H         -2.7661634503       -1.6727913612        3.0527349586
 H         -0.9435353201       -0.2303958121        3.8844331898
 H          0.5003404802        0.9809762087        2.2950644007
 H          0.2505663305        2.0543538606       -0.2405651486
 C          0.2442798604        0.6232552817       -1.8297070696
 C         -0.7516105994        1.3671859925       -2.6655608991
 C          0.7159839306        1.5831649323       -2.8787757489
 H          1.1749503706        1.1864753529       -3.7719679291
 H          1.1499751708        2.5129277520       -2.5398965082
 H         -1.3097115695        0.8211876131       -3.4121177595
 H         -1.3053429593        2.1622132222       -2.1889315686
 H          0.3879760902       -0.4334760382       -2.0257225003
