  62
        -98.94488398
 C         -2.1903033503       -0.9582647014        0.5075572233
 C         -2.3503841886       -0.1661434753       -0.6553219853
 C         -3.1450674187        1.0599940599       -0.4885672011
 C         -3.6135098994        1.3834043865        0.7304441110
 C         -4.4804092647        2.5711998635        1.0300012851
 C         -5.9693477600        2.2141562965        0.9170415377
 C         -6.3326062773        1.4792808666       -0.3732578018
 H         -7.4107740158        1.3065720359       -0.3559460330
 H         -5.8495915657        0.4995366876       -0.3734082498
 C         -5.9555765024        2.2289564519       -1.6586839248
 H         -5.7847210668        3.2829428097       -1.4366304204
 H         -6.7956861027        2.1760746563       -2.3542629515
 C         -4.7367663241        1.6620867463       -2.3893076893
 H         -4.6897655324        2.1211513221       -3.3803241613
 H         -4.8628854937        0.5860488593       -2.5325984919
 C         -3.3817036634        1.9012170841       -1.7110219613
 H         -3.2677792500        2.9620243633       -1.4774695912
 H         -2.5973891891        1.6221452468       -2.4211931922
 H         -6.5505791297        3.1351040957        0.9899349841
 H         -6.2365982285        1.5752952080        1.7619369171
 H         -4.2347213752        3.3762668469        0.3400478381
 H         -4.2708320680        2.9022237470        2.0486972125
 O         -3.3829942984        0.6297139436        1.8364802476
 C         -2.6752442923       -0.5586920616        1.7521060266
 O         -2.5368258899       -1.1531542969        2.8413732580
 O         -1.8620103623       -0.4668805907       -1.7751836549
 C         -1.4149285595       -2.2628280750        0.4376513327
 C          0.0110146205       -1.9802722093        0.0293187927
 C          0.6544142690       -2.6157469144       -1.0234914958
 C          1.9586142556       -2.2831596920       -1.3486449004
 C          2.6496942591       -1.3253077027       -0.6301989434
 C          2.0174959610       -0.6882039219        0.4301067097
 C          0.7114439587       -1.0212263147        0.7515020720
 H          0.2163422663       -0.5209620108        1.5758913993
 N          2.7171699408        0.2743559023        1.1816123591
 S          3.4484629743        1.5376540509        0.3483467013
 O          3.5447387213        2.6154986132        1.3093843985
 O          2.7555961152        1.8354368018       -0.8839205479
 C          5.0834361727        0.9233233283        0.0016836623
 C          5.5460877956        0.8926402346       -1.2992455340
 C          6.8241668677        0.4146473264       -1.5444062783
 C          7.6122227974       -0.0208412820       -0.4900917602
 C          7.1334681415        0.0193492730        0.8111427572
 C          5.8574913850        0.4972263826        1.0633434159
 H          5.4487053217        0.5487866208        2.0586343388
 H          7.7492021380       -0.3201198517        1.6283754443
 H          8.6054639676       -0.3939799906       -0.6837114264
 H          7.1979453314        0.3831943605       -2.5552152314
 H          4.8943367629        1.2356814127       -2.0870632695
 H          2.1867107408        0.6348719146        1.9620563237
 H          3.6635545501       -1.0623228119       -0.8837857439
 H          2.4442048015       -2.7784630281       -2.1755256233
 H          0.1321169729       -3.3624709996       -1.5981536287
 H         -1.3997406394       -2.6607263725        1.4629120687
 C         -2.1252929187       -3.2532573438       -0.4600556967
 C         -1.9481781376       -4.7251124347       -0.2431232726
 C         -3.2477482692       -4.0668977372        0.1079271624
 H         -4.1102345017       -4.2597711611       -0.5122723183
 H         -3.4855659067       -3.9232968975        1.1522302277
 H         -1.9209844803       -5.3741831199       -1.1051737859
 H         -1.3044640867       -5.0367539743        0.5653563671
 H         -2.2344573917       -2.8920392098       -1.4759420624
