  62
        -98.94468762
 C         -2.5968415707       -0.8895493098        0.2550567093
 C         -2.5016633156       -0.0104307398       -0.8512861377
 C         -2.8493879477        1.3940885731       -0.5900555801
 C         -3.2686500443        1.7609929485        0.6333609321
 C         -3.6016711277        3.1641500840        1.0469040511
 C         -2.3788453045        3.8744275057        1.6433195059
 C         -1.1139547234        3.7641537704        0.7907654341
 H         -0.3358836979        4.3481755973        1.2877953991
 H         -0.7667815045        2.7276465092        0.7752796436
 C         -1.2722361482        4.2575966412       -0.6538952426
 H         -2.1489069913        4.9021707646       -0.7349952308
 H         -0.3982722356        4.8589261666       -0.9132138404
 C         -1.3615444249        3.1397415867       -1.6948740872
 H         -0.5422982507        2.4322105111       -1.5329212617
 H         -1.2179296321        3.5830551363       -2.6845776929
 C         -2.6858037019        2.3643055015       -1.7254434056
 H         -3.5220791015        3.0656937675       -1.7614582884
 H         -2.7005090553        1.7646063316       -2.6403013047
 H         -2.6293488817        4.9273628693        1.7860083185
 H         -2.1682502170        3.4383174974        2.6224050414
 H         -3.9691872354        3.7144059559        0.1830881335
 H         -4.3885817413        3.1212598094        1.8019980733
 O         -3.4011512113        0.8814088580        1.6578727263
 C         -3.0353980063       -0.4433979965        1.5065594505
 O         -3.1590357282       -1.1267776574        2.5425924115
 H         -0.3287553362       -1.4599252502       -1.5715881500
 C          0.1366878866       -1.8430189845       -0.6757204791
 C         -0.6539468102       -2.3774817179        0.3317814552
 C         -0.0316207063       -2.8374448090        1.4866209004
 C          1.3424513771       -2.7503827875        1.6310296270
 C          2.1208215564       -2.1775163901        0.6398546074
 C          1.5053856306       -1.7153032468       -0.5147658997
 N          2.2793507578       -1.0357371124       -1.4924593658
 S          2.5566404611        0.5663695065       -1.0294831339
 O          1.4646134033        1.0860772121       -0.2372111129
 O          2.8689863158        1.2839518637       -2.2465389858
 C          4.0231864840        0.4243549478       -0.0320151041
 C          5.1955678662        0.0390979682       -0.6528754975
 C          6.3417946149       -0.1037705379        0.1122791122
 C          6.2955184172        0.1387793697        1.4773782042
 C          5.1108287538        0.5257593762        2.0850366128
 C          3.9603171664        0.6702398146        1.3249225919
 H          3.0147063727        0.9625892207        1.7533424350
 H          5.0763323510        0.7127455301        3.1463554566
 H          7.1881794566        0.0253122645        2.0720102029
 H          7.2651176137       -0.4045456118       -0.3559418613
 H          5.1842644381       -0.1349488153       -1.7158860697
 H          1.8170204215       -1.0199079662       -2.3928328139
 H          3.1881039747       -2.0789742907        0.7556695927
 H          1.8098443389       -3.1133871749        2.5335892206
 H         -0.6385714925       -3.2387974916        2.2853852862
 C         -2.1584505691       -2.3486265650        0.2083850094
 H         -2.5823200186       -2.8178814931        1.1059373229
 C         -2.6552436235       -3.1021283373       -1.0078656280
 C         -2.6977631970       -4.5991414892       -0.9623633385
 C         -3.9725886605       -3.8117206484       -0.9394360742
 H         -4.6003430438       -3.8152573934       -1.8177604301
 H         -4.5221212031       -3.7560397559       -0.0109083465
 H         -2.4485122354       -5.1481996413       -1.8572935369
 H         -2.3842588451       -5.0803029263       -0.0483136766
 H         -2.3961532581       -2.6322226009       -1.9470045949
 O         -2.1485140913       -0.3538188095       -2.0130185062
