  62
        -98.93808290
 C          1.9698944858        1.3569685008        0.3540339770
 C          2.6804699631        0.7821936553       -0.7261131872
 C          3.8725868461       -0.0092905910       -0.3726374361
 C          4.2092325558       -0.1590440384        0.9197506961
 C          5.3980834340       -0.8813173923        1.5028058688
 C          5.7634580758       -2.2451154312        0.9006532350
 C          4.5725092493       -3.0719763395        0.3941700138
 H          4.6321296713       -4.0765260105        0.8174314225
 H          3.6351074906       -2.6303090774        0.7373349012
 C          4.5436872965       -3.2064307218       -1.1303495880
 H          5.5578826395       -3.4068108942       -1.4828205506
 H          3.9291713342       -4.0704622938       -1.3948919668
 C          3.9801244101       -2.0031801639       -1.8856182181
 H          2.9015656860       -1.9314726493       -1.7181744370
 H          4.1247811081       -2.1797131806       -2.9541673064
 C          4.6000750661       -0.6438189926       -1.5226780697
 H          5.6652916138       -0.7362215479       -1.3252979344
 H          4.4591854003        0.0260158439       -2.3752204980
 H          6.4701643371       -2.1057221636        0.0838641210
 H          6.2886310165       -2.8024744118        1.6781746603
 H          6.2649186695       -0.2174789129        1.4362274049
 H          5.1654964938       -1.0005763329        2.5638184358
 O          3.4762641666        0.3896974612        1.9306284989
 C          2.3437492071        1.1445878200        1.6791778589
 O          1.7613364591        1.5571284825        2.7039466229
 H         -0.1886260359       -0.1235812412        0.9707781478
 C         -0.6743030126        0.1489874177        0.0412629564
 C         -0.3209105674        1.3427319373       -0.5776968177
 C         -0.9621323798        1.6913231942       -1.7580519532
 C         -1.9052102217        0.8459661696       -2.3188156876
 C         -2.2384902029       -0.3501805195       -1.7119720599
 C         -1.6200479338       -0.6966740752       -0.5163038842
 N         -1.9723679432       -1.8966089251        0.1241781282
 S         -3.5992572020       -2.2772240531        0.2268379222
 O         -3.7257356630       -3.0813410430        1.4223035407
 O         -4.0280699447       -2.9042939073       -0.9986049631
 C         -4.4387637645       -0.7152801058        0.4282683232
 C         -4.1008588535        0.0721524937        1.5111714761
 C         -4.7203175026        1.3016251296        1.6648813883
 C         -5.6632451980        1.7204128041        0.7383865490
 C         -5.9966171381        0.9153607032       -0.3394538363
 C         -5.3781227208       -0.3142851149       -0.4996889848
 H         -5.6036604351       -0.9699245287       -1.3248936192
 H         -6.7318540580        1.2424273275       -1.0567503682
 H         -6.1404130526        2.6799977482        0.8596360603
 H         -4.4616125653        1.9282880631        2.5033987096
 H         -3.3663254333       -0.2817053996        2.2172634868
 H         -1.5024342165       -2.0471223978        1.0043549236
 H         -2.9571637537       -1.0261581534       -2.1460973806
 H         -2.3851948508        1.1219293484       -3.2450770147
 H         -0.7152010040        2.6182982301       -2.2478297426
 C          0.7304221347        2.1946773767        0.0920350217
 H          0.3489777989        2.4854331739        1.0816846437
 C          1.0885865490        3.4470589348       -0.6788740854
 C          0.2396756456        4.6750103474       -0.5510069643
 C          1.6008660652        4.6364666269        0.0743164570
 H          2.3910223267        5.2250914130       -0.3671120789
 H          1.6708976412        4.5511159656        1.1492563230
 H         -0.6184045435        4.6234359479        0.1017345959
 H          0.0956001438        5.2958183428       -1.4221975979
 H          1.5414875696        3.2315937788       -1.6393208175
 O          2.3479655773        0.9279475048       -1.9300508416
