  62
        -98.94436773
 C          2.3361722364        1.1144680834        0.2352724557
 C          2.3978001295       -0.1354398750       -0.4274480977
 C          3.3885512337       -1.0860862166        0.0955684553
 C          4.1344787852       -0.7618695091        1.1665877703
 C          5.1669285929       -1.6341688811        1.8274580625
 C          6.5469325553       -1.5851969056        1.1571616612
 C          6.6419862581       -2.3014257574       -0.1906130211
 H          6.2581265532       -3.3170192698       -0.0890113606
 H          7.7025062603       -2.3772617553       -0.4386789367
 C          5.9167641859       -1.5876861380       -1.3399354245
 H          6.5644481175       -1.5619879539       -2.2191167526
 H          5.7185391892       -0.5511816998       -1.0577802302
 C          4.6029437918       -2.2436127824       -1.7652640073
 H          4.8037468953       -3.2360658906       -2.1749773704
 H          4.1569429274       -1.6365723876       -2.5572368634
 C          3.5720044082       -2.3810573589       -0.6371090409
 H          3.8716882225       -3.1697782512        0.0527582727
 H          2.6098992766       -2.6524581903       -1.0794019659
 H          7.2580497222       -2.0515134434        1.8428467022
 H          6.8389524360       -0.5396146724        1.0355923175
 H          5.2688456029       -1.2713914348        2.8525077124
 H          4.8110717444       -2.6644529734        1.8577924919
 O          4.0147864144        0.4332770592        1.8028005440
 C          3.1310192855        1.3971217543        1.3500495041
 O          3.1431547811        2.4523757577        2.0145911936
 H         -0.4558040866        0.7599159786       -1.6330521799
 C         -0.8264134952        1.0424362211       -0.6605457807
 C         -0.0271881856        1.7922972788        0.1881351185
 C         -0.5109069860        2.1067902156        1.4547923867
 C         -1.7658444357        1.6865228208        1.8540405293
 C         -2.5609247789        0.9370084265        1.0040681256
 C         -2.0786244901        0.6007758098       -0.2531741695
 N         -2.8700012076       -0.1688475899       -1.1221375638
 S         -3.6549543922       -1.5194368401       -0.5116077007
 O         -2.9445397628       -2.0993284118        0.6050256307
 O         -3.8705758351       -2.3803803280       -1.6542145207
 C         -5.2269429386       -0.8772865406        0.0283703418
 C         -5.9637119791       -0.1242738603       -0.8649374479
 C         -7.1922990864        0.3760896360       -0.4648153027
 C         -7.6629397794        0.1139241028        0.8132639906
 C         -6.9134141174       -0.6470523173        1.6970358048
 C         -5.6828276020       -1.1496815960        1.3032069961
 H         -5.0627804517       -1.7405236827        1.9587812333
 H         -7.2804766799       -0.8500478477        2.6902928737
 H         -8.6191854019        0.5053203282        1.1226253103
 H         -7.7777715025        0.9685647117       -1.1492696692
 H         -5.5634213481        0.0550896060       -1.8486691870
 H         -2.4100449284       -0.3868360303       -1.9946478556
 H         -3.5356451332        0.5972162802        1.3136130828
 H         -2.1296279922        1.9420220298        2.8376998186
 H          0.1186653775        2.6718909469        2.1279871200
 C          1.3716101536        2.2091802413       -0.1970861627
 H          1.6359576970        3.0913153946        0.4007165093
 C          1.5193734379        2.5574800381       -1.6638112475
 C          0.9168080373        3.8306281486       -2.1743464986
 C          2.4049896806        3.6996010879       -2.0575956627
 H          2.9889003929        3.6099703238       -2.9614720782
 H          2.9058366759        4.2395995438       -1.2671920491
 H          0.4064255268        4.4597828776       -1.4609578135
 H          0.4766758303        3.8346730099       -3.1596980993
 H          1.5111757859        1.6949537368       -2.3176072090
 O          1.6775140570       -0.4572141895       -1.4096067451
