  62
        -98.94461304
 C          1.5233089218        1.5453116201       -0.5174774542
 C          1.4115085278        0.1675885638       -0.8286175033
 C          2.6420072854       -0.6256763579       -0.6747028031
 C          3.7788801736       -0.0210456368       -0.2876263119
 C          5.0851020306       -0.7190348097       -0.0449124560
 C          5.2174078387       -1.1550259036        1.4209815015
 C          3.9950673103       -1.9019279501        1.9548867186
 H          4.2140375263       -2.1872321174        2.9862121720
 H          3.1440872105       -1.2172967546        1.9852230312
 C          3.6128093827       -3.1504278641        1.1478832820
 H          3.3988429089       -3.9638217282        1.8442928481
 H          4.4565161540       -3.4651136463        0.5326372353
 C          2.3749111099       -2.9819475615        0.2646841012
 H          1.5512247493       -2.5774464047        0.8580737488
 H          2.0735023903       -3.9721484633       -0.0851577841
 C          2.5516027865       -2.0956976207       -0.9741327145
 H          3.4220343899       -2.4262640547       -1.5442952334
 H          1.6606797168       -2.2174756123       -1.5968352085
 H          6.1026349673       -1.7868337090        1.5147008992
 H          5.3697609964       -0.2641912317        2.0348799443
 H          5.1559199077       -1.5848009891       -0.7003581669
 H          5.8943973949       -0.0267849238       -0.2834340829
 O          3.8547573690        1.3087784090       -0.0240285635
 C          2.7342986041        2.1151844086       -0.1138063120
 O          2.9424850098        3.3107238903        0.1777375497
 H         -1.5413647646        0.5381638331       -0.2384031992
 C         -1.4830370382        1.2068958897        0.6032769730
 C         -0.5764237377        2.2573475945        0.5904545075
 C         -0.4926549433        3.0836423890        1.7067890538
 C         -1.3064279613        2.8692232765        2.8040773843
 C         -2.2224810000        1.8328098467        2.8059803434
 C         -2.3049665080        0.9927343761        1.7004016495
 N         -3.1918256451       -0.0889335483        1.6963923206
 S         -3.8624401665       -0.6849787954        0.2868738935
 O         -4.1463462363        0.3676383171       -0.6605705736
 O         -5.0121072249       -1.4391206601        0.7466122700
 C         -2.6648501655       -1.8275377218       -0.3619769462
 C         -2.3896982193       -1.8310102655       -1.7130467861
 C         -1.4991799449       -2.7665839266       -2.2128408547
 C         -0.9046458968       -3.6780392528       -1.3563789149
 C         -1.1915586882       -3.6613127054       -0.0002342020
 C         -2.0821012086       -2.7294849100        0.5049821035
 H         -2.3287042730       -2.6856042794        1.5531321344
 H         -0.7206413925       -4.3687015138        0.6637958423
 H         -0.2083552362       -4.4033073141       -1.7481933630
 H         -1.2660457547       -2.7732309307       -3.2657592217
 H         -2.8645952215       -1.0955658464       -2.3434082454
 H         -3.8280636261       -0.1376257578        2.4777696969
 H         -2.8644665571        1.6683187450        3.6581151080
 H         -1.2330509421        3.5194185773        3.6628799324
 H          0.2267778144        3.8903966314        1.7089251103
 C          0.3361819611        2.4944036675       -0.5892451652
 H          0.7588164995        3.5031179836       -0.4866422337
 C         -0.4003123567        2.4184593422       -1.9113004834
 C         -1.3028404900        3.5481892835       -2.3019862766
 C         -0.0067149003        3.3390167009       -3.0251453299
 H         -0.0335765214        2.9646836216       -4.0375142011
 H          0.7985029832        4.0350382611       -2.8384630485
 H         -1.3755207127        4.3860258678       -1.6245756860
 H         -2.2257749214        3.3165410977       -2.8115157628
 H         -0.7046046164        1.4167446820       -2.1838902584
 O          0.3554572949       -0.3906159359       -1.2225313841
