  62
        -98.94355530
 C         -1.4679827665       -1.3693376842        0.6118101359
 C         -2.4560237778       -1.2022796794       -0.3887618193
 C         -3.4371225573       -0.1318848903       -0.1448353532
 C         -3.3134224316        0.6509201035        0.9417051558
 C         -4.2394662768        1.7783591459        1.2969077795
 C         -3.7767770062        3.1158314136        0.7026724022
 C         -3.3953121309        3.0349376623       -0.7750303240
 H         -3.0842558625        4.0341255752       -1.0878166408
 H         -2.5327502027        2.3744965777       -0.8869350394
 C         -4.5236728901        2.5408641830       -1.6906380473
 H         -4.5652218460        3.1809866805       -2.5744392923
 H         -5.4834150564        2.6321066949       -1.1804529372
 C         -4.3499659396        1.1045403213       -2.1870743021
 H         -3.3534576361        0.9819450418       -2.6184376403
 H         -5.0755007437        0.9315286651       -2.9864388617
 C         -4.5589558835        0.0073575502       -1.1357934583
 H         -5.5087371902        0.1682510674       -0.6212504658
 H         -4.6128092701       -0.9495412616       -1.6630487476
 H         -4.5771767781        3.8463924110        0.8337499878
 H         -2.9103567445        3.4652907736        1.2688423085
 H         -5.2386100566        1.5393284424        0.9367484343
 H         -4.2695031089        1.8651652217        2.3844701799
 O         -2.3004927600        0.5150636732        1.8354251192
 C         -1.3669793163       -0.4964525507        1.6997637655
 O         -0.5063981296       -0.5234061338        2.6020335937
 O         -2.5468716000       -1.9049133095       -1.4288052121
 C         -0.4195514419       -2.4718842081        0.5675916634
 C          0.7335161892       -2.0220693153       -0.2951799862
 C          0.6403617297       -1.9663575759       -1.6815408704
 C          1.7014286650       -1.4985576950       -2.4360189019
 C          2.8703561046       -1.0730049910       -1.8282680574
 C          2.9665861064       -1.1150162931       -0.4445721650
 C          1.9049837202       -1.5910114688        0.3111774999
 H          1.9766127904       -1.6021806215        1.3907208853
 N          4.1403769436       -0.6388342854        0.1837825448
 S          4.4211083797        1.0001961667       -0.0409799225
 O          4.9001061150        1.2150574833       -1.3822678932
 O          5.3132237127        1.3942050090        1.0253292258
 C          2.8135906836        1.7438172329        0.1657757460
 C          2.0606830721        2.0584821058       -0.9469617185
 C          0.7759163843        2.5442159843       -0.7670260781
 C          0.2700327124        2.6995375881        0.5138710655
 C          1.0375539661        2.3775422838        1.6217790769
 C          2.3216890206        1.8899074352        1.4473552457
 H          2.9484001469        1.6307303237        2.2858409628
 H          0.6320885400        2.4852622836        2.6149087145
 H         -0.7326738825        3.0712438187        0.6522704422
 H          0.1710362769        2.7941109467       -1.6243020402
 H          2.4915997838        1.9219898494       -1.9252073991
 H          4.1609707455       -0.8420991252        1.1738925581
 H          3.7004834349       -0.6905418346       -2.3999685549
 H          1.6168168805       -1.4605534416       -3.5114729011
 H         -0.2797775464       -2.2661776582       -2.1583638102
 H         -0.0459775403       -2.5637047919        1.5964736334
 C         -0.9677930865       -3.8181500378        0.1414580503
 C         -0.1774182821       -5.0501337784        0.4605149622
 C         -1.4582381904       -4.7716253738        1.1872165277
 H         -2.3221408389       -5.3797328357        0.9647658834
 H         -1.4012779998       -4.4578699873        2.2196880919
 H         -0.1590220461       -5.8516746483       -0.2616965822
 H          0.7493717205       -4.9246977981        1.0002894449
 H         -1.5071167624       -3.7943277149       -0.7951689214
