  62
        -98.93332083
 C         -2.2491042443       -0.8411578194        0.6289131339
 C         -3.3445254064       -0.9209098452       -0.2627732712
 C         -4.4678279824        0.0035941557       -0.0125517175
 C         -4.4041519461        0.8698717673        1.0145298319
 C         -5.3993839629        1.8924338027        1.5223441641
 C         -6.5814152510        2.3293434043        0.6604811866
 C         -6.2039611399        3.1096521407       -0.5980979387
 H         -7.1139735748        3.2837627473       -1.1764488092
 H         -5.8089140319        4.0834870971       -0.2979480770
 C         -5.1628083611        2.4482764031       -1.4978855113
 H         -4.9944850335        3.1074771780       -2.3538748685
 H         -4.2132590888        2.3681244142       -0.9642347412
 C         -5.5450671514        1.0721935728       -2.0395350876
 H         -4.7957665272        0.7939645417       -2.7853522722
 H         -6.5125549135        1.1303623676       -2.5418253806
 C         -5.6000467370       -0.0583208931       -0.9973128683
 H         -6.5560863232       -0.0756475444       -0.4800626753
 H         -5.4948922157       -1.0097275015       -1.5263042303
 H         -7.1991577964        1.4732309358        0.4061155846
 H         -7.1931176156        2.9865746594        1.2845739444
 H         -5.7886549908        1.4864758543        2.4626817903
 H         -4.8067107447        2.7728870353        1.7903437472
 O         -3.3277796424        0.9049957130        1.8553678668
 C         -2.2407936162        0.0696409214        1.6877622889
 O         -1.3436925894        0.2264889429        2.5418238077
 H          1.2978402337       -0.3514452345        0.7811610123
 C          1.0561305437       -0.5238958846       -0.2582872242
 C         -0.1076319731       -1.2005263842       -0.5963025848
 C         -0.4080702511       -1.3857585770       -1.9419812527
 C          0.4473915939       -0.9125467730       -2.9199031052
 C          1.6217145457       -0.2650469861       -2.5796376359
 C          1.9235300333       -0.0617426956       -1.2379841168
 N          3.0929554136        0.6190938537       -0.8627247390
 S          3.8844453053        0.1388581498        0.5487626128
 O          3.9039146822       -1.3040642796        0.6376865160
 O          3.3112938057        0.8423916901        1.6686999434
 C          5.5260909197        0.7573439374        0.2276711144
 C          5.8015162773        2.0850312850        0.4956417649
 C          7.0681871088        2.5750812793        0.2199956227
 C          8.0326279348        1.7346358718       -0.3163290421
 C          7.7421504401        0.4040844813       -0.5779096908
 C          6.4769609824       -0.0923179937       -0.3056299319
 H          6.2084029725       -1.1212526608       -0.4833223803
 H          8.4950333873       -0.2474544341       -0.9912650612
 H          9.0177724847        2.1186651436       -0.5288979381
 H          7.2985102275        3.6080405378        0.4254085780
 H          5.0228059303        2.6961713226        0.9217580263
 H          3.7361379221        0.7504957398       -1.6315155256
 H          2.2952585130        0.0905076343       -3.3447291531
 H          0.2026601413       -1.0610006601       -3.9608544741
 H         -1.3263236936       -1.8828418342       -2.2114561020
 C         -1.0100158921       -1.7135175294        0.5012938943
 H         -0.4682982595       -1.5951245548        1.4503295277
 C         -1.3308385092       -3.1840574130        0.3160518027
 C         -0.2473443939       -4.1901695520        0.5566891573
 C         -1.3927725176       -4.0766433684        1.5166537817
 H         -2.1306775284       -4.8645944349        1.5354699660
 H         -1.2062421079       -3.6294871027        2.4827370079
 H         -0.1977197559       -5.0574421862       -0.0836065618
 H          0.7178827374       -3.8178967348        0.8688831447
 H         -2.0329894174       -3.3779126123       -0.4834813163
 O         -3.4151045004       -1.7268817826       -1.2270908599
