  62
        -98.93986850
 C          2.3443562016        1.0067920566        0.3923378982
 C          2.6104749730       -0.0423621055       -0.5218618387
 C          3.6182384430       -1.0233930480       -0.0913919912
 C          4.1871356419       -0.9211888108        1.1224668706
 C          5.2016247131       -1.8631658487        1.7116510766
 C          6.6466552660       -1.5743285456        1.2823787107
 C          6.9809563075       -1.9388247795       -0.1646314097
 H          8.0671107678       -1.8908765812       -0.2644335614
 H          6.6818313466       -2.9695998656       -0.3572254083
 C          6.3483273583       -1.0127996913       -1.2128526394
 H          7.0994351752       -0.7371271144       -1.9565569847
 H          6.0205937650       -0.0883222573       -0.7316760599
 C          5.1671395408       -1.6230937138       -1.9674269722
 H          4.7732896037       -0.8705052037       -2.6555309313
 H          5.5109999206       -2.4732762732       -2.5608013493
 C          4.0160043535       -2.0900854660       -1.0670336965
 H          3.1506897415       -2.3025930556       -1.6999861025
 H          4.2965340138       -3.0022151557       -0.5407567597
 H          6.8554983908       -0.5150533842        1.4488686848
 H          7.3023985600       -2.1495848491        1.9399332544
 H          4.9423239997       -2.8901891428        1.4528868164
 H          5.1357547153       -1.7500227278        2.7958616158
 O          3.8741877167        0.0773711818        1.9899464469
 C          2.9743573339        1.0684890150        1.6398308361
 O          2.8172400433        1.9443865463        2.5134731088
 O          2.0456058813       -0.1805171041       -1.6386628428
 C          1.3750016916        2.1420445250        0.1024724874
 C         -0.0428837308        1.7581290915        0.4389865935
 C         -0.8343472730        2.5718502233        1.2404025389
 C         -2.1429214133        2.2210788176        1.5243425782
 C         -2.6872602115        1.0555557336        1.0155905345
 C         -1.9045199029        0.2355457269        0.2132905755
 C         -0.5929722038        0.5885140418       -0.0676507853
 H          0.0082270437       -0.0452517659       -0.7032582305
 N         -2.4501243747       -0.9536668964       -0.3080227815
 S         -3.8487956698       -0.8004350097       -1.2298872660
 O         -3.8613103367       -1.9517808221       -2.1052227672
 O         -3.9178073172        0.4944163602       -1.8673494034
 C         -5.1624771824       -0.9642841070       -0.0391410137
 C         -5.2151486883       -2.1193006733        0.7164216226
 C         -6.2337331357       -2.2656378655        1.6444411580
 C         -7.1784815700       -1.2617095377        1.7982703330
 C         -7.1141902714       -0.1100396289        1.0289568441
 C         -6.0969710643        0.0431827134        0.0995867739
 H         -6.0030576929        0.9230859631       -0.5166495324
 H         -7.8498678894        0.6688370306        1.1496283105
 H         -7.9698176427       -1.3780998639        2.5218447313
 H         -6.2874084935       -3.1600547305        2.2440264288
 H         -4.4640860012       -2.8761421499        0.5625801205
 H         -1.7700608640       -1.5121428376       -0.8051648101
 H         -3.7054702239        0.7772578449        1.2333103474
 H         -2.7458124621        2.8617629813        2.1494657959
 H         -0.4138421074        3.4795332454        1.6481896934
 H          1.6698545873        2.9502947756        0.7899144865
 C          1.5167252228        2.6837327397       -1.3154615086
 C          0.4688675581        2.5449872342       -2.3751532649
 C          0.7191666337        3.8797567291       -1.7441368115
 H          1.2063843595        4.6477441499       -2.3254968136
 H         -0.0266659752        4.2499561720       -1.0568175593
 H          0.8034889313        2.3750899829       -3.3875183782
 H         -0.4493781986        2.0307850522       -2.1353314519
 H          2.5457234679        2.6421085666       -1.6590171055
