  62
        -98.94152406
 C         -1.7806649156       -1.4034135117       -0.0599943593
 C         -2.9111658363       -0.7465449073        0.4807123186
 C         -3.3091442291        0.5220165963       -0.1521124114
 C         -2.5773374295        0.9954202612       -1.1755462426
 C         -2.7386826608        2.3095500141       -1.8875033560
 C         -1.8395676828        3.3750854255       -1.2351421399
 C         -2.4903922225        4.1440330387       -0.0868666164
 H         -1.7203947275        4.7854071455        0.3485185583
 H         -3.2775767708        4.7906542774       -0.4818566715
 C         -3.0784810737        3.2676151047        1.0218456080
 H         -2.3833706016        2.4538110087        1.2412224261
 H         -3.1553117041        3.8755068735        1.9259063898
 C         -4.4671983405        2.7074436480        0.6788819689
 H         -4.8572996930        3.2357794637       -0.1910786245
 H         -5.1532764478        2.9168805491        1.5023462684
 C         -4.5230801867        1.1927534933        0.4311650197
 H         -4.6927535359        0.6766183621        1.3815401244
 H         -5.3854677506        0.9681762896       -0.2058459763
 H         -1.5340118226        4.0953623157       -1.9972221587
 H         -0.9361849554        2.8789713566       -0.8676847257
 H         -3.7787353249        2.6226034715       -1.8976565620
 H         -2.4060216961        2.1530277504       -2.9157029758
 O         -1.5040093135        0.3289885507       -1.6746873673
 C         -1.0531388790       -0.8513505389       -1.1145099901
 O         -0.0226241195       -1.3027449533       -1.6505851976
 O         -3.5514891495       -1.1938144973        1.4723644198
 C         -1.2738582484       -2.6487268419        0.6473346390
 C          0.2049217662       -2.4950538247        0.9059962453
 C          1.1597346495       -3.4542645902        0.5965359305
 C          2.5024305214       -3.2099114955        0.8334559052
 C          2.9233601257       -1.9985691327        1.3500216644
 C          1.9739145957       -1.0327049618        1.6634603452
 C          0.6298792956       -1.3006404338        1.4763328681
 H         -0.0941941835       -0.5391304801        1.7294520884
 N          2.3374416971        0.2446027837        2.1455138908
 S          2.0546567765        1.5203923798        1.0892504628
 O          2.4993553160        2.7036984847        1.7953287989
 O          0.6799322643        1.5120863601        0.6641786397
 C          3.1643888043        1.1979849775       -0.2699477522
 C          4.3978509103        1.8221545953       -0.2696304438
 C          5.3055699445        1.5181532215       -1.2704987451
 C          4.9702970475        0.5886100586       -2.2440168657
 C          3.7308417019       -0.0314408337       -2.2264367561
 C          2.8134313348        0.2709122927       -1.2305116801
 H          1.8413880047       -0.1980537388       -1.2046831709
 H          3.4626333905       -0.7552970078       -2.9792487907
 H          5.6776204940        0.3462559672       -3.0214964350
 H          6.2688820871        2.0020314208       -1.2865002199
 H          4.6115609708        2.5381919701        0.5076764074
 H          3.2952238968        0.2984956857        2.4665074015
 H          3.9728926142       -1.7953186524        1.5020543992
 H          3.2328533176       -3.9653085674        0.5871027638
 H          0.8577652157       -4.3866952703        0.1487110602
 H         -1.7910720098       -2.6352806454        1.6222265998
 C         -1.6462770058       -3.9631845669       -0.0210503820
 C         -2.8124381983       -4.0503993723       -0.9585000318
 C         -1.4179188277       -4.2083786436       -1.4814821276
 H         -1.0978341959       -5.1923161364       -1.7917750411
 H         -0.9900872762       -3.4040959022       -2.0583713883
 H         -3.4478144293       -4.9218639081       -0.9059422669
 H         -3.3426880836       -3.1361013866       -1.1834234829
 H         -1.5055765480       -4.8105338707        0.6430459509
