  62
        -98.93735507
 C         -2.2781341721        0.6773243121       -0.1223630881
 C         -3.5435036513        1.0568639115       -0.6399342565
 C         -4.7163955195        0.5798864964        0.1001667861
 C         -4.5468418621       -0.1797280784        1.1972318950
 C         -5.6401232225       -0.7149924874        2.0818643209
 C         -6.2698127071       -2.0213303482        1.5792487223
 C         -7.1727051710       -1.8787251024        0.3533577483
 H         -7.7139189736       -2.8204550687        0.2430583414
 H         -7.9117114141       -1.0981726992        0.5366506419
 C         -6.4231636196       -1.5842580008       -0.9535553529
 H         -5.3643954821       -1.8225215120       -0.8274603570
 H         -6.8043058892       -2.2318631382       -1.7463952797
 C         -6.5504472688       -0.1426308002       -1.4460861459
 H         -5.9514006165       -0.0358437912       -2.3540413756
 H         -7.5912002407        0.0666289494       -1.7029739339
 C         -6.0747274726        0.9129536254       -0.4393440027
 H         -6.7937658440        1.0085773980        0.3740052781
 H         -6.0008374714        1.8722278100       -0.9574801342
 H         -5.4700236949       -2.7332430305        1.3626647719
 H         -6.8664484288       -2.4304389972        2.3978415874
 H         -5.1849258058       -0.9051301687        3.0562179447
 H         -6.4159290987        0.0418048054        2.2020859462
 O         -3.3182032136       -0.5430721303        1.6493879453
 C         -2.1552503036       -0.1496640919        0.9953184372
 O         -1.1165327632       -0.6016374951        1.5111123952
 O         -3.6851010985        1.7623771325       -1.6740436355
 C         -1.0461346572        1.1593723150       -0.8659682635
 C         -0.0716203842        0.0290925986       -1.0772844093
 C         -0.4520617788       -1.0412284652       -1.8834884246
 C          0.4094531773       -2.0962868366       -2.1107966749
 C          1.6763880416       -2.0986670464       -1.5539448579
 C          2.0620249697       -1.0405144103       -0.7403232363
 C          1.1897940661        0.0133774084       -0.5056760683
 H          1.5089361313        0.8097675869        0.1455588370
 N          3.3289283755       -1.0275975695       -0.1360355389
 S          4.1092750506        0.4526256015        0.0723133088
 O          3.6609695165        1.0603255084        1.2997367900
 O          3.9749633219        1.2560906528       -1.1227571657
 C          5.7953277250       -0.0991411706        0.2588304398
 C          6.1938906906       -0.6028849527        1.4828710403
 C          7.4928283243       -1.0637535442        1.6264428712
 C          8.3666313033       -1.0142054551        0.5501760953
 C          7.9530494119       -0.5039811953       -0.6711125323
 C          6.6546429451       -0.0426438458       -0.8220923643
 H          6.2904136715        0.3686123221       -1.7497511292
 H          8.6356197819       -0.4636641980       -1.5046216232
 H          9.3772471708       -1.3728429699        0.6653616012
 H          7.8187099258       -1.4583964517        2.5752756045
 H          5.4820213511       -0.6132838268        2.2919381997
 H          3.9503606541       -1.7357892359       -0.5015806447
 H          2.3543767259       -2.9187613543       -1.7360751209
 H          0.0980181079       -2.9199153047       -2.7357595200
 H         -1.4397276623       -1.0350252406       -2.3252384109
 H         -1.4267856309        1.4637928797       -1.8562410648
 C         -0.3959090450        2.3931273593       -0.2582940104
 C         -1.2110883959        3.4300484743        0.4528997099
 C         -0.2461657135        2.5793697922        1.2204770711
 H          0.6664858088        3.0275600653        1.5869757507
 H         -0.6351844541        1.8062709727        1.8646873915
 H         -0.9697963608        4.4703394097        0.2947068499
 H         -2.2672662020        3.2378956919        0.5740612243
 H          0.4204238445        2.7615910171       -0.8742265468
