  62
        -98.94944355
 C         -1.0071687470       -1.6971815170       -0.2551221829
 C         -2.2698107803       -1.5298724584        0.3579738214
 C         -3.0765557938       -0.4081519625       -0.1344370603
 C         -2.5914414700        0.3857913949       -1.1060487251
 C         -3.2942745329        1.5696818672       -1.7141981786
 C         -3.1617972822        2.8623302060       -0.8968619567
 C         -3.9974476991        2.9138499786        0.3824068465
 H         -3.9988224432        3.9519606797        0.7211394948
 H         -5.0295073691        2.6421207906        0.1567957228
 C         -3.4642701984        2.0304518590        1.5190627305
 H         -3.4814412775        2.5949311079        2.4548803497
 H         -2.4170632958        1.7788992688        1.3304018064
 C         -4.2615064691        0.7469178248        1.7537498741
 H         -5.2627372959        1.0000193515        2.1114032472
 H         -3.7591707290        0.1731771600        2.5369968707
 C         -4.4006040537       -0.1535194186        0.5200706832
 H         -4.7987563112       -1.1178755294        0.8465449401
 H         -5.0975020693        0.2897584526       -0.1912633608
 H         -3.4682496600        3.6899319732       -1.5412821192
 H         -2.1111094759        3.0137117709       -0.6357237757
 H         -4.3503332361        1.3372095469       -1.8561813975
 H         -2.8398836793        1.7317828186       -2.6940349005
 O         -1.3781185558        0.1812233322       -1.6833662252
 C         -0.5471523923       -0.8459517553       -1.2599464375
 O          0.5478252522       -0.8994876061       -1.8504038793
 O         -2.7027947605       -2.2834695754        1.2729181745
 C         -0.0853071093       -2.7958819427        0.2348727715
 C          1.2391212014       -2.2250237024        0.6815238943
 C          2.4320952002       -2.9323828918        0.5847377932
 C          3.6204512242       -2.3679811845        1.0141223984
 C          3.6521153905       -1.0830678521        1.5250832908
 C          2.4646315289       -0.3685722008        1.6268931807
 C          1.2723991111       -0.9511887649        1.2316461928
 H          0.3597624428       -0.3834342572        1.3340469748
 N          2.4391684481        0.9476180532        2.1247711648
 S          1.5906120944        2.1092250783        1.2746159823
 O          2.0924567097        3.3650274447        1.7976576453
 O          0.1704171824        1.9052271593        1.4128331104
 C          2.0724861742        1.9665056249       -0.4369329520
 C          3.3919025442        1.7184028324       -0.7588284082
 C          3.7542275654        1.6522948457       -2.0937605030
 C          2.7999142484        1.8431552830       -3.0805417717
 C          1.4828790203        2.1041713551       -2.7418927172
 C          1.1157312966        2.1664275461       -1.4082492095
 H          0.0972198941        2.3481165498       -1.1048340160
 H          0.7359775671        2.2456685316       -3.5064518872
 H          3.0827562166        1.7850360886       -4.1198283415
 H          4.7787881617        1.4478406046       -2.3603292355
 H          4.1201830607        1.5781835749        0.0229881121
 H          3.3365553066        1.3064225648        2.4182020599
 H          4.5822298607       -0.6380427454        1.8446807896
 H          4.5377481832       -2.9311396621        0.9357296654
 H          2.4300518641       -3.9271485988        0.1698271381
 H         -0.5872649818       -3.2327334270        1.1121683678
 C          0.0656979736       -3.8721022636       -0.8227901744
 C          0.2050088233       -5.3128164171       -0.4328761180
 C         -1.0696654206       -4.8235278606       -1.0494656947
 H         -1.3035064413       -5.1172859070       -2.0616725830
 H         -1.9375678184       -4.7145021957       -0.4153579550
 H          0.8467240935       -5.9476026387       -1.0252649947
 H          0.1953862274       -5.5510121563        0.6201390709
 H          0.6065931113       -3.5204290807       -1.6942655830
