  62
        -98.93922974
 C         -1.2280586286       -1.5895616190       -0.3062085495
 C         -2.4106443948       -1.4462134997        0.4622959778
 C         -3.3964176705       -0.4459768140        0.0114941209
 C         -3.1336523964        0.2591568549       -1.1041088882
 C         -3.9660847231        1.3432439948       -1.7356727019
 C         -3.8761121270        2.6865401462       -0.9888318190
 C         -3.8622838233        2.5814184094        0.5346333669
 H         -3.0557061874        1.9142542832        0.8449429167
 H         -3.6365886899        3.5732149548        0.9346906990
 C         -5.1745958422        2.1163093804        1.1611322000
 H         -5.0401758091        2.1215310049        2.2457524602
 H         -5.9602012855        2.8363645681        0.9203417649
 C         -5.6551031731        0.7256562104        0.7455851515
 H         -6.4892840495        0.4600258685        1.4017418853
 H         -6.0507480824        0.7386431118       -0.2663517772
 C         -4.6166284737       -0.3819927039        0.8977225192
 H         -4.2380823845       -0.3779582636        1.9260255511
 H         -5.1205982823       -1.3491318824        0.7797654844
 H         -4.7121800093        3.3128299193       -1.3039743838
 H         -2.9535521993        3.1837709481       -1.2983272554
 H         -3.5832780558        1.4819736055       -2.7493389092
 H         -4.9972976819        1.0111263712       -1.8169823129
 O         -1.9874408328        0.0821933923       -1.8191811825
 C         -1.0108407602       -0.8284746437       -1.4523485925
 O         -0.0325685393       -0.8478672792       -2.2253137720
 H          2.1302440664       -1.3641956996       -0.6676150796
 C          1.9828438632       -1.3071975344        0.3990869215
 C          0.8586614312       -1.8705361640        0.9882452431
 C          0.6907001037       -1.7481660503        2.3651095407
 C          1.6314312549       -1.0952708320        3.1383199385
 C          2.7568475913       -0.5468098292        2.5506867449
 C          2.9297007619       -0.6501420089        1.1752263641
 N          4.0742389621       -0.1009818844        0.5680055312
 S          3.8891655964        0.9221047638       -0.7458431952
 O          3.5739646241        0.1634050259       -1.9264340133
 O          5.1256537130        1.6751852443       -0.7862166604
 C          2.5450439244        1.9903127890       -0.2686745836
 C          1.2687123077        1.7282757443       -0.7192523553
 C          0.2236435716        2.5112232775       -0.2535546178
 C          0.4705822139        3.5365449700        0.6450094861
 C          1.7627659536        3.7940332766        1.0789521794
 C          2.8106022451        3.0109110197        0.6244092696
 H          3.8297799608        3.1816235649        0.9316929184
 H          1.9527048475        4.5972779808        1.7724725373
 H         -0.3491314583        4.1379617297        1.0055733243
 H         -0.7785168067        2.3043213744       -0.5952775894
 H          1.1074179913        0.9246222480       -1.4204451410
 H          4.7251985569        0.3040970762        1.2264476983
 H          3.5001293867       -0.0432191836        3.1499397246
 H          1.4892825548       -1.0135725424        4.2050438308
 H         -0.1955960075       -2.1670803126        2.8194394692
 C         -0.1995240774       -2.5945722556        0.1876817741
 H         -0.7501377161       -3.2390693169        0.8872908373
 C          0.3799831547       -3.4685341264       -0.9033182105
 C          1.0621047420       -4.7452327727       -0.5154489524
 C         -0.2683444562       -4.7854118095       -1.2038471485
 H         -0.3102255001       -5.1153281841       -2.2311162838
 H         -1.1351975751       -5.0619706039       -0.6212853537
 H          1.9381562950       -5.0484789820       -1.0680284668
 H          1.0965622803       -4.9932663458        0.5348120041
 H          0.7842291178       -2.9174325324       -1.7422642010
 O         -2.6402122773       -2.1297666715        1.4956279500
