  62
        -98.93962134
 C         -1.0084391584       -1.3322245620       -0.2087460526
 C         -1.9185754884       -1.0677710051        0.8489469843
 C         -2.8477048203        0.0538328226        0.6571330698
 C         -2.7750866977        0.7721187032       -0.4777416034
 C         -3.7134469390        1.8766489418       -0.8740861553
 C         -5.0428654300        1.2771756977       -1.3760808092
 C         -6.2504881263        1.5980513791       -0.4949394720
 H         -6.5536593247        2.6323799077       -0.6707060841
 H         -7.0717487400        0.9554090747       -0.8193442304
 C         -6.0447543436        1.4207973390        1.0127055456
 H         -7.0362514493        1.4266243843        1.4705772404
 H         -5.5129105727        2.2841345687        1.4153666778
 C         -5.3107185373        0.1449681537        1.4455249841
 H         -5.7865568673       -0.2277477501        2.3549220419
 H         -5.4168040680       -0.6344619598        0.6905788739
 C         -3.8175891796        0.3416889428        1.7692585950
 H         -3.6572960975        1.3564089224        2.1438192772
 H         -3.5406479464       -0.3515225327        2.5688109043
 H         -4.9240725551        0.1942586348       -1.4517136378
 H         -5.2496109648        1.6405027727       -2.3838425804
 H         -3.8924933360        2.5360807068       -0.0277241014
 H         -3.2309162216        2.4459470628       -1.6683604359
 O         -1.8671660421        0.5149285445       -1.4506776400
 C         -0.9631057640       -0.5296895799       -1.3484773024
 O         -0.1996679035       -0.6149372395       -2.3322807108
 H          1.6941952844       -0.9947356120       -1.3593807945
 C          2.0700924243       -1.2941885457       -0.3924971792
 C          1.2844270861       -2.0934001084        0.4258542669
 C          1.7778809144       -2.4482750064        1.6757015442
 C          3.0251194329       -2.0148028254        2.0932792080
 C          3.8000898260       -1.2076669921        1.2788682807
 C          3.3089258007       -0.8420246617        0.0329597384
 N          4.0599811125        0.0427465105       -0.7800568781
 S          4.0646290418        1.6190631245       -0.2101124172
 O          4.5903642670        2.4307656779       -1.2836417020
 O          4.7956512798        1.6515189050        1.0310547035
 C          2.3525524200        2.0281622513        0.0892724052
 C          1.6447393563        2.6990684737       -0.8870276705
 C          0.3105687440        2.9967975916       -0.6633549549
 C         -0.2942287295        2.6029406640        0.5196092524
 C          0.4229760743        1.9081742939        1.4806106897
 C          1.7616769614        1.6218263838        1.2693933456
 H          2.3528971738        1.0992075427        2.0034446863
 H         -0.0581102335        1.5840342962        2.3899647937
 H         -1.3330185005        2.8341526860        0.6937186645
 H         -0.2547031272        3.5269921750       -1.4129182054
 H          2.1521671475        2.9877474212       -1.7937388426
 H          3.7320199184        0.0520898312       -1.7370609168
 H          4.7588317605       -0.8323968850        1.5978070103
 H          3.3944428801       -2.3010119741        3.0662978829
 H          1.1686265463       -3.0545989871        2.3298750329
 C         -0.0879188215       -2.5289321889       -0.0255175411
 H         -0.5371328447       -3.1128827203        0.7887137987
 C         -0.0012963749       -3.4104476262       -1.2563288161
 C          0.4325646107       -4.8358471618       -1.0998375597
 C         -0.9929977563       -4.5185748700       -1.4365220231
 H         -1.3504566818       -4.7325537641       -2.4326083570
 H         -1.7401788536       -4.6512064535       -0.6676290573
 H          1.0576460304       -5.2704843615       -1.8646338084
 H          0.6514254312       -5.1856489395       -0.1023877016
 H          0.3173744419       -2.8817485067       -2.1451330735
 O         -1.9571536566       -1.7524684355        1.9055797784
