  62
        -98.94292753
 C         -1.9752058765       -1.0464116870        0.4014159301
 C         -2.5813583182       -0.0008194538        1.1463004195
 C         -4.0060066889        0.2455040534        0.8913856192
 C         -4.6553614249       -0.5280582732        0.0028088537
 C         -6.0927384959       -0.3606242364       -0.3944443732
 C         -6.2279772679        0.5668199649       -1.6101134015
 C         -5.4546568985        1.8786151734       -1.4749355645
 H         -4.3838053851        1.6623316877       -1.4576204726
 H         -5.6487086894        2.4651087878       -2.3755934817
 C         -5.8227942873        2.7077297471       -0.2365084985
 H         -5.9369878963        3.7519217026       -0.5351621219
 H         -6.7838926755        2.3771558246        0.1590022372
 C         -4.7783743137        2.6769947352        0.8811454757
 H         -5.0300757687        3.4582885935        1.6034717516
 H         -3.7939982363        2.9174686713        0.4707790998
 C         -4.6677487427        1.3574009238        1.6554358614
 H         -4.0359000069        1.5376722825        2.5302689328
 H         -5.6564514968        1.0510675734        2.0035445809
 H         -7.2869776355        0.7811387134       -1.7647363882
 H         -5.8551133751        0.0395048314       -2.4910993346
 H         -6.6520028767        0.0423210746        0.4476781064
 H         -6.4952058475       -1.3420612042       -0.6506001303
 O         -4.0511295644       -1.5334028363       -0.6750364314
 C         -2.7010134720       -1.8130536033       -0.5113146781
 O         -2.3027501992       -2.7531839524       -1.2248839003
 O         -1.9575815151        0.6915658302        1.9960504998
 C         -0.4966685298       -1.2952433543        0.6539768567
 C          0.3486124898       -0.6517781730       -0.4196664681
 C          0.3391893013       -1.1153817047       -1.7320386028
 C          1.1107082576       -0.4968498439       -2.6980316187
 C          1.9185242411        0.5796962369       -2.3745914185
 C          1.9347582262        1.0517822474       -1.0682730673
 C          1.1476827496        0.4378126615       -0.1025878635
 H          1.1580852619        0.8278777204        0.9044121678
 N          2.7440871215        2.1463476064       -0.7089466273
 S          3.8210659370        1.9635430126        0.5600054324
 O          3.1062164248        1.8213514630        1.8015933727
 O          4.7119166597        3.0973554015        0.4547603175
 C          4.6977212265        0.4599570760        0.1709750492
 C          4.1742104378       -0.7495227234        0.5815153265
 C          4.8137444844       -1.9191339699        0.2029776232
 C          5.9604601928       -1.8592514057       -0.5738390044
 C          6.4772976676       -0.6360978534       -0.9739451137
 C          5.8379646600        0.5362876462       -0.6049571300
 H          6.2072967183        1.5083828102       -0.8893265593
 H          7.3718640446       -0.5933873622       -1.5741416290
 H          6.4546593310       -2.7720541243       -0.8668112571
 H          4.4098546345       -2.8690631614        0.5143369375
 H          3.2831941042       -0.7561964440        1.1872805241
 H          3.2126492834        2.5793179878       -1.4925851635
 H          2.5241344537        1.0584129542       -3.1292884635
 H          1.0885772863       -0.8615389259       -3.7137291419
 H         -0.2970567816       -1.9473908830       -1.9904271454
 H         -0.2809201203       -0.7772959079        1.5989130667
 C         -0.1540709151       -2.7618154606        0.8248326668
 C          1.0437276151       -3.1406746642        1.6408557039
 C         -0.3352010580       -3.4004655798        2.1676093119
 H         -0.6925493983       -4.4183010642        2.2094524033
 H         -0.6998134767       -2.7774421041        2.9717873193
 H          1.6377045697       -3.9833560456        1.3228169831
 H          1.6121359668       -2.3443816771        2.0982088365
 H         -0.3856882643       -3.3653739644       -0.0423767392
