  62
        -98.93485749
 C          2.3054402464        1.2259000747        0.1710123801
 C          3.2629211258        0.5700725173        0.9841773740
 C          4.1481823188       -0.4001524510        0.3183018891
 C          3.9718321210       -0.6590610163       -0.9885020321
 C          4.7753697481       -1.5632420031       -1.8901298428
 C          5.2305005858       -2.9139182344       -1.3242500137
 C          4.2383256001       -3.5760051421       -0.3571245629
 H          3.2799739752       -3.0538401776       -0.3893477701
 H          4.0581166197       -4.6030327302       -0.6803386826
 C          4.7489327652       -3.6194948026        1.0850637928
 H          5.8014740693       -3.9105836178        1.0751465566
 H          4.2007269513       -4.3932355132        1.6281042952
 C          4.5972233569       -2.3190405012        1.8729063508
 H          3.5395608036       -2.1316734749        2.0779776636
 H          5.0907733871       -2.4514581620        2.8386394578
 C          5.1709369886       -1.0634096598        1.1961107907
 H          5.4084247532       -0.3396482917        1.9805690109
 H          6.0820684245       -1.2925759718        0.6489617040
 H          6.1906956882       -2.7962224311       -0.8242165376
 H          5.3999003092       -3.5711212665       -2.1789201633
 H          4.1396917963       -1.7283745981       -2.7637695643
 H          5.6521466728       -1.0052775279       -2.2324058929
 O          2.9868912407       -0.0618102991       -1.7170717802
 C          2.1335356929        0.8891447454       -1.1715432240
 O          1.2938673672        1.3307619575       -1.9769686242
 H          0.0139909040        0.0727709823        1.3170614079
 C         -0.5956457293        0.8079424726        0.8046050258
 C         -0.0287836752        2.0290463727        0.4594945108
 C         -0.8147170734        2.9568603732       -0.2100668259
 C         -2.1297333661        2.6618150414       -0.5245643872
 C         -2.6905331202        1.4475403327       -0.1751411135
 C         -1.9114177651        0.5081401481        0.4878508731
 N         -2.4733308685       -0.7242440729        0.8630929638
 S         -3.3903894085       -1.5758247763       -0.2551453913
 O         -3.3295205069       -2.9521594674        0.1888163116
 O         -2.9640171909       -1.3197402149       -1.6111103038
 C         -5.0418553132       -0.9591067930       -0.0013557238
 C         -5.7662487903       -0.4714324674       -1.0713176127
 C         -7.0516806446       -0.0008849262       -0.8516997087
 C         -7.5871876067       -0.0271790718        0.4268472867
 C         -6.8478780286       -0.5237272131        1.4901581439
 C         -5.5629448692       -0.9966690304        1.2772455332
 H         -4.9569773694       -1.3925973162        2.0748894270
 H         -7.2676490232       -0.5427906640        2.4830068668
 H         -8.5866591389        0.3414742288        0.5954253171
 H         -7.6276823733        0.3847858333       -1.6774784090
 H         -5.3057318851       -0.4643909873       -2.0466552393
 H         -1.8276394978       -1.3391232427        1.3368914868
 H         -3.7125677776        1.2142387830       -0.4245406901
 H         -2.7272539929        3.3889928985       -1.0529487130
 H         -0.3904330606        3.9003517128       -0.5107675032
 C          1.4142066562        2.2637614660        0.8293796484
 H          1.5205646836        2.0659628049        1.9095410836
 C          1.8670671713        3.6995048357        0.6097120857
 C          3.3125750351        4.0275650799        0.3887395429
 C          2.3259887827        4.2033841060       -0.7245379963
 H          2.0548414955        5.2083918962       -1.0133250903
 H          2.3419106288        3.5035248460       -1.5452793330
 H          4.0100013173        3.2045948710        0.3286449782
 H          3.7169504586        4.9085146575        0.8641044371
 H          1.3076505508        4.3963183605        1.2262769360
 O          3.3821391398        0.7936138948        2.2184183016
