  62
        -98.94225157
 C         -0.9057868195       -1.8444733217       -0.7229093787
 C         -1.9955228895       -2.0618538320        0.1604731412
 C         -3.1432732900       -1.1579546926        0.0246014308
 C         -3.1084136703       -0.1951769029       -0.9141611695
 C         -4.1857704108        0.8260910565       -1.1341427199
 C         -3.9276753616        2.0940324969       -0.3091053202
 C         -3.6032917616        1.8219266475        1.1593614799
 H         -2.6479599113        1.2952803480        1.2221191701
 H         -3.4677978721        2.7893782477        1.6468954396
 C         -4.6768114312        1.0192096172        1.9078482400
 H         -5.6180600112        1.0561929465        1.3580502999
 H         -4.8506249916        1.4866534774        2.8793193899
 C         -4.3069514705       -0.4406104625        2.1774603905
 H         -3.3197111506       -0.4891847219        2.6442587006
 H         -5.0269448004       -0.8476586927        2.8926145205
 C         -4.3057556800       -1.3656181629        0.9537588608
 H         -4.2201449295       -2.3947734028        1.3148194911
 H         -5.2517241699       -1.2679964036        0.4169492306
 H         -4.8086069919        2.7347660864       -0.3768745405
 H         -3.0808028618        2.6227753372       -0.7488464403
 H         -4.2004396809        1.0879660962       -2.1934270300
 H         -5.1471368406        0.3922431461       -0.8654712898
 O         -2.0564313303       -0.0212606426       -1.7504225594
 C         -0.9234363500       -0.8286775820       -1.6790310890
 O         -0.0537443000       -0.5297841818       -2.5160592190
 H          1.1893263196       -0.2383267905       -0.1416953390
 C          1.5647140499       -0.9256894901        0.6009964812
 C          1.1927081705       -2.2622144703        0.5500043816
 C          1.6720890609       -3.1298819498        1.5245466219
 C          2.5154320805       -2.6721166090        2.5207099119
 C          2.9102328299       -1.3475284288        2.5490131415
 C          2.4330898095       -0.4685756794        1.5820762512
 N          2.8101424789        0.8808046608        1.6021049408
 S          3.1306532486        1.7062328806        0.1762952106
 O          3.5104194692        0.8016392304       -0.8804809691
 O          4.1201153781        2.6938944612        0.5573054804
 C          1.6137762382        2.5589312297       -0.1907957198
 C          0.9006738585        2.2739709290       -1.3363979598
 C         -0.2539682419        2.9957581583       -1.6004371901
 C         -0.6681049325        3.9859092284       -0.7238015105
 C          0.0580362973        4.2561886391        0.4270087195
 C          1.2103705476        3.5383826998        0.6972375799
 H          1.8126658874        3.7277248403        1.5701317599
 H         -0.2699841232        5.0246677891        1.1082180593
 H         -1.5587262527        4.5555367179       -0.9401241407
 H         -0.8204132217        2.7672666078       -2.4896727001
 H          1.2353550689        1.4894117490       -1.9981695395
 H          3.4787112187        1.1184934014        2.3206115308
 H          3.5794032896       -0.9892679583        3.3166294815
 H          2.8769678008       -3.3537028786        3.2755776521
 H          1.3669462514       -4.1657657299        1.5045807322
 C          0.2849892209       -2.7679846711       -0.5434209683
 H         -0.1440431287       -3.7205325012       -0.1906609581
 C          1.0402659112       -3.0686790911       -1.8288500482
 C          2.3302983209       -2.4131502105       -2.2088512082
 C          2.3198856416       -3.8513621604       -1.7905893578
 H          2.4846213320       -4.6091760206       -2.5416511976
 H          2.7307356916       -4.0912420699       -0.8214352077
 H          2.4766056609       -2.1750609408       -3.2517717483
 H          2.7577506405       -1.6758883801       -1.5459831884
 H          0.3616642714       -3.2887772517       -2.6472993982
 O         -2.0060651891       -2.9843236717        1.0198606015
