  62
        -98.93921832
 C          2.1326480424        1.0252811866        0.0656624009
 C          2.8668487928        0.3232885800        1.0467235613
 C          3.6311383567       -0.8558412576        0.5951062752
 C          3.5548870102       -1.2174599503       -0.6994620316
 C          4.2667413989       -2.3490720340       -1.3917773621
 C          5.7483757245       -2.0388194564       -1.6627947784
 C          6.4901404009       -1.3757563302       -0.5049354167
 H          7.4864959800       -1.1030225805       -0.8624649700
 H          5.9784905161       -0.4500921813       -0.2352109340
 C          6.6625835282       -2.2427070185        0.7399203064
 H          7.2175259412       -3.1450269509        0.4735593921
 H          7.2711304364       -1.6755488053        1.4488536144
 C          5.3727006687       -2.6598564548        1.4488716242
 H          5.6543084718       -3.0631798450        2.4260685132
 H          4.8754124729       -3.4654381918        0.9152018298
 C          4.3935205633       -1.5208975583        1.7163027739
 H          3.6314644994       -1.8766307633        2.4208703121
 H          4.9170217240       -0.7148067529        2.2428910122
 H          6.2504744381       -2.9683170927       -1.9361311339
 H          5.7985869127       -1.3630695954       -2.5200061998
 H          4.1594510979       -3.2643866884       -0.8170063204
 H          3.7611236320       -2.4976675363       -2.3486362628
 O          2.8030652482       -0.5287985543       -1.6058669668
 C          2.0783200439        0.5972391951       -1.2603245767
 O          1.4440260989        1.1127503675       -2.1998726175
 H         -0.0722237106        0.1496502983        1.2489229166
 C         -0.6956682146        0.8439495947        0.6978917431
 C         -0.1298621918        2.0165616640        0.2112794430
 C         -0.9392975502        2.8972409002       -0.4930003058
 C         -2.2725178268        2.5971269763       -0.7155381398
 C         -2.8283605954        1.4256970222       -0.2361231081
 C         -2.0293410497        0.5407071769        0.4765330076
 N         -2.5875784032       -0.6474144066        0.9835955305
 S         -3.4267912524       -1.6353545166       -0.0860557032
 O         -3.3492651716       -2.9611046052        0.4895439685
 O         -2.9410049379       -1.4924864700       -1.4390217507
 C         -5.1053624625       -1.0523513979        0.0306160292
 C         -5.7885414235       -0.6883778584       -1.1130725969
 C         -7.0982155377       -0.2477991589       -0.9994108223
 C         -7.6976910379       -0.1800189406        0.2488634930
 C         -6.9980551754       -0.5511025714        1.3876627011
 C         -5.6895131795       -0.9941590522        1.2810010710
 H         -5.1121661023       -1.2946541035        2.1392584417
 H         -7.4673393604       -0.4965468650        2.3566844973
 H         -8.7161742306        0.1643187022        0.3347380444
 H         -7.6432004555        0.0408781238       -1.8837702765
 H         -5.2783218638       -0.7511699463       -2.0611864885
 H         -1.9354448611       -1.1964817017        1.5255384004
 H         -3.8639262684        1.1859986010       -0.4142036934
 H         -2.8877033940        3.2866628646       -1.2731496099
 H         -0.5245095232        3.8131766671       -0.8799319312
 C          1.3374643829        2.2527354507        0.4728967754
 H          1.4803854363        2.3459493220        1.5598758591
 C          1.8876602558        3.4919515495       -0.1999589057
 C          1.7228150402        4.8349729536        0.4445243823
 C          3.0705612137        4.1814561322        0.4088212931
 H          3.8255699382        4.5860442101       -0.2483749860
 H          3.4661138914        3.7700783542        1.3261051688
 H          1.5542558852        5.6931965389       -0.1881053287
 H          1.2041855756        4.8742598368        1.3903132415
 H          1.8463648460        3.4309331555       -1.2817010336
 O          2.8883695230        0.6634760782        2.2618316790
