  62
        -98.93210507
 C         -1.7156996300       -1.0876145607        0.4754268192
 C         -2.0827067300        0.1023162893       -0.1969427307
 C         -3.5277076601        0.4182449193       -0.2424993006
 C         -4.4066195500       -0.4239303608        0.3267279394
 C         -5.9094831500       -0.3245130408        0.3967397295
 C         -6.6331336401        0.1026144693       -0.8894930404
 C         -7.2299728901        1.5089188492       -0.8137875603
 H         -8.0499152802        1.5797107093       -1.5320356102
 H         -7.6560149901        1.6523443792        0.1814212898
 C         -6.2544552502        2.6457335993       -1.1138518803
 H         -6.0252364502        2.6529246094       -2.1817703403
 H         -6.7621181702        3.5858157993       -0.8851259401
 C         -4.9362481301        2.5991723793       -0.3384010203
 H         -5.1110562000        2.3044539192        0.6957423996
 H         -4.5271890301        3.6116359593       -0.3149150803
 C         -3.8794921301        1.6844272893       -0.9750319605
 H         -4.1735271102        1.4312096694       -1.9980276005
 H         -2.9315280201        2.2251524794       -1.0610858705
 H         -5.9575097401        0.0231558493       -1.7397816705
 H         -7.4504967901       -0.5999524507       -1.0601514504
 H         -6.2442239400       -1.3201576208        0.6971460894
 H         -6.1750436300        0.3513044091        1.2135436596
 O         -4.0053951199       -1.5499727808        0.9836039693
 C         -2.6735681499       -1.8980896808        1.0920797992
 O         -2.4700846499       -2.9373014309        1.7501504091
 H          1.3183237699        0.1382597294       -0.8279402709
 C          1.3551373600        0.3526120793        0.2288434891
 C          0.5918662500       -0.4006639107        1.1071967891
 C          0.6347273001       -0.0868645208        2.4614122191
 C          1.4276660201        0.9475718991        2.9259759991
 C          2.1871065401        1.6982278792        2.0452899291
 C          2.1335905000        1.4038070393        0.6909078691
 N          2.9256864599        2.1600938994       -0.2098934309
 S          4.5381600999        1.7081551794       -0.2145367110
 O          5.0970173300        1.9863397794        1.0835190790
 O          5.1472747498        2.3840620895       -1.3374777810
 C          4.4974976499       -0.0526378405       -0.5000298211
 C          4.3316792600       -0.8993574006        0.5778521088
 C          4.1908077600       -2.2581546806        0.3454961287
 C          4.2131107900       -2.7431327805       -0.9534762413
 C          4.3818040599       -1.8795663504       -2.0251848113
 C          4.5183480199       -0.5193931304       -1.7991500012
 H          4.6510006698        0.1866036896       -2.6034522811
 H          4.4004358398       -2.2611856103       -3.0335260213
 H          4.0968522800       -3.8009530105       -1.1310037114
 H          4.0547086101       -2.9315092707        1.1767056987
 H          4.3195948701       -0.4840674407        1.5724000788
 H          2.5694815999        2.1278961095       -1.1554913309
 H          2.8235649301        2.4989080792        2.3856013092
 H          1.4542153702        1.1721069291        3.9815565891
 H          0.0361052202       -0.6664463809        3.1508949591
 C         -0.2716436900       -1.5387493007        0.6277137990
 H         -0.3016539799       -2.2984962308        1.4244410990
 C          0.3157442300       -2.2212633306       -0.6001332811
 C         -0.5025806201       -3.1933513706       -1.3944690311
 C         -0.0919681901       -1.8870576905       -2.0018925110
 H          0.6705216498       -1.8963742904       -2.7672909510
 H         -0.8435372801       -1.1269850505       -2.1450642509
 H         -1.5364559400       -3.3209150006       -1.1072852510
 H         -0.0316814901       -4.0984044705       -1.7464184412
 H          1.3607171600       -2.4761253806       -0.4499861911
 O         -1.2634662301        0.8812991994       -0.7493584207
