  62
        -98.93751674
 C          1.3732600089        1.6436917165       -0.0930874159
 C          1.4950193960        0.2354263252       -0.0812498404
 C          2.8653525254       -0.3055279974        0.0168481158
 C          3.9023975816        0.5489944702        0.0754636471
 C          5.3743881559        0.2409166313        0.1889051137
 C          5.9130389622       -0.8918520419       -0.6984899095
 C          6.2974851448       -2.1485343761        0.0846438338
 H          7.0393433122       -2.7059217006       -0.4917932811
 H          6.7744972409       -1.8435429109        1.0184824627
 C          5.1430008828       -3.0999433645        0.3942588487
 H          4.8293323073       -3.5973146926       -0.5259988703
 H          5.5239035380       -3.8720273496        1.0670286173
 C          3.9148095179       -2.4517426188        1.0365837313
 H          4.2176362186       -1.7178154876        1.7825525069
 H          3.3635649982       -3.2326275781        1.5645219885
 C          2.9574931731       -1.8070377380        0.0230887552
 H          3.1991197888       -2.1499356906       -0.9868905487
 H          1.9333086382       -2.1397281692        0.2196878048
 H          5.1862755674       -1.1341420046       -1.4721246767
 H          6.8083587274       -0.5226129473       -1.2014380551
 H          5.8796230826        1.1775919038       -0.0576564429
 H          5.6041117845        0.0315790985        1.2367739128
 O          3.7330051831        1.9038214335        0.0668354575
 C          2.4801884809        2.4844648174       -0.0108575615
 O          2.4843779363        3.7324326274        0.0067508156
 H         -2.5359071409        1.1652977180       -0.3759658274
 C         -2.1401288947        1.1715784070        0.6247371081
 C         -0.8942245143        1.7155527429        0.8900317067
 C         -0.4446213855        1.7403773516        2.2083069332
 C         -1.2129642599        1.2116108175        3.2265058364
 C         -2.4405652512        0.6334355410        2.9522352196
 C         -2.9039484502        0.6165247492        1.6429875590
 N         -4.1468090557        0.0503475506        1.3323512216
 S         -4.4210578989       -0.6601249317       -0.1526615657
 O         -4.6426392640        0.3551871332       -1.1528343547
 O         -5.5391752688       -1.5494838176        0.0871300532
 C         -2.9727541664       -1.6184892793       -0.5573152003
 C         -2.5045384215       -2.5357071947        0.3608141565
 C         -1.4007966869       -3.3048126675        0.0343145787
 C         -0.7892233325       -3.1481619979       -1.1986757530
 C         -1.2735659552       -2.2259147721       -2.1109093741
 C         -2.3751490913       -1.4516311155       -1.7887603885
 H         -2.7784640956       -0.7153497609       -2.4667117040
 H         -0.7893424185       -2.0983427100       -3.0664243551
 H          0.0761246382       -3.7421447217       -1.4478233173
 H         -1.0149000668       -4.0181541014        0.7451538422
 H         -3.0008822840       -2.6390498608        1.3123568758
 H         -4.5974108895       -0.4481605642        2.0848068080
 H         -3.0347379324        0.2034672859        3.7439253869
 H         -0.8491119268        1.2367330646        4.2427769879
 H          0.5239119626        2.1734641906        2.4203317167
 C         -0.0049229883        2.2713201855       -0.1948367663
 H          0.1307719470        3.3484945371       -0.0198040305
 C         -0.5624919975        2.0656924329       -1.5879245896
 C         -1.5741628845        3.0198011488       -2.1456836733
 C         -0.1749066910        3.0114154694       -2.6826286376
 H         -0.0028045146        2.6139556920       -3.6716302800
 H          0.4792268108        3.8308577457       -2.4218335025
 H         -2.3705304369        2.6282037470       -2.7612710067
 H         -1.8733857130        3.8499917303       -1.5236198049
 H         -0.6559781682        1.0158787307       -1.8435653868
 O          0.5072833034       -0.5397091582       -0.1433531174
