  62
        -98.94432835
 C          1.7295622499        1.1387538009       -0.4152108206
 C          3.0748863098        1.3492513813       -0.0316986807
 C          3.9904995801        0.2298121315       -0.2796875807
 C          3.5248630904       -0.9022344587       -0.8387757106
 C          4.3386123007       -2.1252947685       -1.1656007805
 C          4.5446847310       -3.0764427684        0.0214417696
 C          5.5205118909       -2.5833667180        1.0907054095
 H          5.7388372412       -3.4324608079        1.7415534695
 H          6.4576838408       -2.2874448678        0.6181342794
 C          4.9878344307       -1.4282616481        1.9500562994
 H          3.9022818806       -1.3659962784        1.8441099295
 H          5.1951208508       -1.6316562379        3.0031773694
 C          5.5955371203       -0.0639844479        1.6242671793
 H          6.6632488903       -0.0734081376        1.8547946592
 H          5.1208417701        0.6850388920        2.2633811692
 C          5.4146815101        0.3745551419        0.1652939492
 H          5.6800829698        1.4321256420        0.0906445291
 H          6.0767915802       -0.1979618180       -0.4840241107
 H          3.5743435611       -3.2785954886        0.4805644696
 H          4.9259074012       -4.0186655983       -0.3790193004
 H          3.7936464008       -2.6616600687       -1.9451836904
 H          5.3080992406       -1.8248467283       -1.5642011306
 O          2.2243589004       -1.0610606891       -1.2017983005
 C          1.2917955502       -0.0529110793       -0.9947886205
 O          0.1390415902       -0.3338346296       -1.3681750404
 H         -2.0026588604        2.0915408099       -0.6714958005
 C         -1.7227821702        1.6854850700        0.2877343995
 C         -0.3975401702        1.7066190604        0.6898667794
 C         -0.0730937100        1.1722423106        1.9345488595
 C         -1.0465906698        0.6232817404        2.7461447995
 C         -2.3683421198        0.5929054600        2.3349581096
 C         -2.7025447000        1.1247009098        1.0978377296
 N         -4.0453326201        1.0970032195        0.6690969197
 S         -4.7961276097       -0.3978506708        0.5681236998
 O         -6.0083461998       -0.1591512511       -0.1823235901
 O         -4.9658328695       -0.9305464907        1.8963248899
 C         -3.6794758194       -1.4195450505       -0.3719360002
 C         -2.7036765692       -2.1406676702        0.2849578299
 C         -1.7999139591       -2.8760889601       -0.4635200701
 C         -1.8839012391       -2.8749684002       -1.8461423501
 C         -2.8706093194       -2.1461152205       -2.4905358401
 C         -3.7754416095       -1.4057415207       -1.7487416901
 H         -4.5600885997       -0.8279431909       -2.2111114002
 H         -2.9301218594       -2.1455931806       -3.5672945201
 H         -1.1703553890       -3.4401653700       -2.4245503901
 H         -1.0252281589       -3.4385008098        0.0328664799
 H         -2.6687450192       -2.1173707601        1.3620689499
 H         -4.1930865902        1.5992467193       -0.1953340904
 H         -3.1399284997        0.1545006399        2.9469254197
 H         -0.7768735297        0.2123528406        3.7075805096
 H          0.9606268900        1.1862303109        2.2529399894
 C          0.7137824896        2.2418877406       -0.1771991107
 H          1.2498082294        3.0203972608        0.3845283892
 C          0.2459643494        2.8252657004       -1.4933591807
 C         -0.3087575010        4.2168593402       -1.5442240408
 C          1.0424933691        3.9265233006       -2.1234203708
 H          1.1564595890        3.9306358905       -3.1971086108
 H          1.9155833090        4.2749247008       -1.5914957809
 H         -1.1220601711        4.4257491000       -2.2229601708
 H         -0.3554920411        4.7696775403       -0.6182051208
 H         -0.1790704205        2.0779996802       -2.1544589506
 O          3.4894343396        2.4185175314        0.4913351792
