  62
        -98.93489318
 C         -2.4356956993       -1.0793129292        0.5383817405
 C         -2.6995905427       -0.2162487241       -0.5513744987
 C         -3.0024633437        1.1875744976       -0.2166690037
 C         -3.0319315198        1.5772302715        1.0679587218
 C         -3.3472419320        2.9393024697        1.6337995267
 C         -2.7271419076        4.1594533694        0.9396970360
 C         -1.3325400871        3.9321291578        0.3374996626
 H         -0.6646319351        4.7265635386        0.6766533489
 H         -0.9089292738        2.9869260331        0.6841487895
 C         -1.3299838756        3.9429587410       -1.1927554395
 H         -1.9567691806        4.7654747535       -1.5459405985
 H         -0.3087928940        4.1280769249       -1.5365891247
 C         -1.7860591547        2.6405131000       -1.8468982623
 H         -1.0375527246        1.8671684142       -1.6464414846
 H         -1.8074391370        2.7939843675       -2.9291279294
 C         -3.1571831520        2.1122936845       -1.3894571352
 H         -3.8410157894        2.9295015403       -1.1739652616
 H         -3.5762694560        1.5098815979       -2.2001535321
 H         -3.3959838931        4.5132524804        0.1560931915
 H         -2.6730930002        4.9520131149        1.6880623641
 H         -4.4349935698        3.0554794709        1.6539063531
 H         -3.0076497742        2.8987421664        2.6714577362
 O         -2.8052256382        0.7050852768        2.0905427587
 C         -2.4655585245       -0.6130390622        1.8547099784
 O         -2.2316542249       -1.2733916904        2.8872945949
 H         -0.5215878311       -1.1386799808       -1.4024993344
 C          0.1048925352       -1.6965646906       -0.7219884578
 C         -0.4823403832       -2.5151041693        0.2335657707
 C          0.3459643055       -3.2239377656        1.0945147010
 C          1.7229767758       -3.0996768292        1.0100097996
 C          2.2999547223       -2.2463542239        0.0850098086
 C          1.4777470732       -1.5410714397       -0.7825102507
 N          2.0478011373       -0.5802459598       -1.6641077168
 S          2.1799160740        0.9118004657       -0.8752375203
 O          1.0880984419        1.1207346002        0.0498814730
 O          2.3392894590        1.9024225894       -1.9170785451
 C          3.7071211771        0.7158910281        0.0140842280
 C          4.8910978691        0.7613578746       -0.6960389578
 C          6.0841074760        0.5609594403       -0.0204216745
 C          6.0716138986        0.3160674734        1.3449119500
 C          4.8742791243        0.2740705278        2.0431258160
 C          3.6772759008        0.4747633205        1.3731448110
 H          2.7217120008        0.4466429869        1.8731522604
 H          4.8656546379        0.0826916207        3.1041474148
 H          7.0005832056        0.1568903372        1.8692629769
 H          7.0174069357        0.5932675354       -0.5590295842
 H          4.8505172043        0.9580248575       -1.7544211684
 H          1.4776885881       -0.4408578550       -2.4890458126
 H          3.3690288076       -2.1185531653        0.0328194181
 H          2.3526682659       -3.6552102016        1.6877598391
 H         -0.0975952112       -3.8527016001        1.8526900714
 C         -1.9832047911       -2.5242107170        0.3742550810
 H         -2.2286508247       -3.0178310357        1.3274034851
 C         -2.7064130713       -3.2735139156       -0.7346556156
 C         -2.0249078238       -3.7788295665       -1.9680356471
 C         -2.4639729018       -4.7437736135       -0.9108131393
 H         -3.3066956588       -5.3876410761       -1.1108881896
 H         -1.6971155144       -5.1942721053       -0.2986732788
 H         -2.5751992875       -3.7336498775       -2.8954926053
 H         -0.9678946106       -3.5950586476       -2.0819098841
 H         -3.7275766265       -2.9298958194       -0.8588056961
 O         -2.6887848591       -0.5754924225       -1.7589226292
