  62
        -98.94291664
 C          2.6406710203        1.1882533967        0.2489931839
 C          2.7706030513        0.3260703469       -0.8666421225
 C          3.7958125791       -0.7232084390       -0.7538301440
 C          4.5476313716       -0.8044345091        0.3581311597
 C          5.5815642459       -1.8587457872        0.6242924456
 C          4.9708389315       -3.0630250125        1.3547121730
 C          3.6862820678       -3.5883288162        0.7136011466
 H          3.3646117447       -4.4556813512        1.2940406854
 H          2.9044766292       -2.8309915250        0.8083572956
 C          3.8298789272       -3.9859329634       -0.7621701582
 H          4.8832397163       -4.1252291635       -1.0078738258
 H          3.3315386634       -4.9452894929       -0.9165771863
 C          3.2067917909       -2.9970509740       -1.7493070460
 H          2.1770011578       -2.7824513230       -1.4517947937
 H          3.1703239150       -3.4749589242       -2.7320626915
 C          3.9482818389       -1.6645124955       -1.9158955556
 H          5.0034281728       -1.8535807739       -2.1228925700
 H          3.5164829721       -1.1495075318       -2.7791003706
 H          5.7156169301       -3.8602385409        1.3878668055
 H          4.7440227909       -2.7663531714        2.3812934392
 H          6.0207273698       -2.1767738752       -0.3192307245
 H          6.3626879304       -1.4235085931        1.2497911900
 O          4.4116656017        0.0525624190        1.4007707579
 C          3.4598262752        1.0549888393        1.3763885264
 O          3.4425430597        1.7640320296        2.4020759442
 H          0.0600383995        0.6772540343       -1.1497080839
 C         -0.4282704072        0.9896746561       -0.2383883175
 C          0.2452870845        1.8278061429        0.6386218108
 C         -0.3940280385        2.2135502650        1.8111259923
 C         -1.6730998775        1.7681794579        2.0952416416
 C         -2.3381759690        0.9270176581        1.2211461823
 C         -1.7078287298        0.5344921857        0.0476262784
 N         -2.3598792452       -0.3416433048       -0.8365167706
 S         -3.9382851206       -0.0006901750       -1.2891845526
 O         -4.1216046546       -0.6650945102       -2.5610220535
 O         -4.2043588931        1.4190988990       -1.2618573209
 C         -4.9234362616       -0.8291819733       -0.0585261828
 C         -4.7009921188       -2.1754498589        0.1551356924
 C         -5.4679264004       -2.8385221364        1.0996888754
 C         -6.4409240241       -2.1491736883        1.8082285371
 C         -6.6541608838       -0.7984395058        1.5799179527
 C         -5.8895731212       -0.1289996015        0.6369484791
 H         -6.0160509387        0.9216700405        0.4295142904
 H         -7.4111372589       -0.2644754111        2.1315819355
 H         -7.0362645590       -2.6681965952        2.5427437510
 H         -5.3047571463       -3.8888305881        1.2803718035
 H         -3.9373214897       -2.6746410119       -0.4178830014
 H         -1.7994275628       -0.5907775719       -1.6390251841
 H         -3.3338452083        0.5758743159        1.4381217474
 H         -2.1571519457        2.0768585626        3.0092445457
 H          0.1237780207        2.8593840043        2.5054500242
 C          1.6341501591        2.3274582842        0.3165034824
 H          1.9627749042        2.9581080897        1.1532409949
 C          1.6204114823        3.1768873135       -0.9406095611
 C          1.1081380212        4.5820250955       -0.8616030695
 C          2.5720767435        4.3272083878       -1.0580987563
 H          3.0100500088        4.5368958636       -2.0224369241
 H          3.2378344664        4.5112212975       -0.2271892625
 H          0.7817062219        4.9419785379        0.1024043881
 H          0.5357149060        4.9686127631       -1.6909647162
 H          1.4097043521        2.6141822749       -1.8404268907
 O          2.0779874171        0.4027910820       -1.9181825697
