  62
        -98.94043155
 C          2.4409280671       -1.0897648445        0.0248643383
 C          2.4195639866        0.3025158058       -0.2295798473
 C          3.7115335338        0.9015663827       -0.5891005796
 C          4.8066308560        0.1255619777       -0.6855094201
 C          6.1876709297        0.5850577425       -1.0675383274
 C          7.0004145724        1.1586202923        0.1012671639
 C          6.5548170811        2.5381193074        0.5877209108
 H          7.3356335499        2.9107800056        1.2535812395
 H          6.4970670766        3.2205712602       -0.2607245119
 C          5.2192178614        2.5418167338        1.3445395221
 H          4.9751109391        1.5246755069        1.6597927337
 H          5.3156468930        3.1428524238        2.2515747128
 C          4.0417652260        3.1080283495        0.5504920075
 H          3.1420153047        3.0293482622        1.1666159506
 H          4.2145058410        4.1663714701        0.3423458414
 C          3.7693037595        2.3875373394       -0.7765982481
 H          4.5305512800        2.6506275026       -1.5108447891
 H          2.7943152660        2.7119529149       -1.1493321239
 H          6.9647933911        0.4503804292        0.9321319288
 H          8.0389554012        1.2318280392       -0.2293932808
 H          6.1194886959        1.3268859730       -1.8636081681
 H          6.7110066031       -0.2927046553       -1.4525761131
 O          4.7772077908       -1.2150640969       -0.4597607487
 C          3.6050882897       -1.8501975524       -0.0830162151
 O          3.7243509146       -3.0767699939        0.1123881570
 O          1.3790875504        1.0095129300       -0.1656404030
 C          1.1656897112       -1.8032086019        0.4348060765
 C          0.0901140309       -1.5811611306       -0.6005880872
 C          0.3900505407       -1.8158625711       -1.9403105863
 C         -0.5615310676       -1.6179844214       -2.9210688119
 C         -1.8309336522       -1.1795982514       -2.5869423569
 C         -2.1466140364       -0.9582532944       -1.2521098136
 C         -1.1908078676       -1.1704877555       -0.2673571483
 H         -1.4578145753       -0.9858783140        0.7586986038
 N         -3.4501254748       -0.5651642047       -0.8903422202
 S         -3.6877601328        0.6343508263        0.2747151804
 O         -3.1000580873        1.8835051102       -0.1579021506
 O         -3.2768111395        0.1386858871        1.5626720568
 C         -5.4674982714        0.7451311550        0.2200677429
 C         -6.2034461717       -0.2604246445        0.8179994289
 C         -7.5866641512       -0.2021915002        0.7623429049
 C         -8.2081024498        0.8548211455        0.1134966106
 C         -7.4565780330        1.8576867221       -0.4798519975
 C         -6.0721521684        1.8043097645       -0.4290877453
 H         -5.4472888406        2.5645142300       -0.8699576815
 H         -7.9424124840        2.6795230108       -0.9808099621
 H         -9.2849918128        0.8982760754        0.0721187954
 H         -8.1744549919       -0.9791119801        1.2240581792
 H         -5.6771836780       -1.0566941876        1.3178208846
 H         -4.0112920289       -0.3458140194       -1.7038438544
 H         -2.5714698732       -1.0126193656       -3.3548558742
 H         -0.3117861109       -1.7967636015       -3.9563194363
 H          1.3868437843       -2.1464747243       -2.2012195498
 H          1.4082477417       -2.8762750386        0.4524323678
 C          0.7581388831       -1.3747083269        1.8290625368
 C         -0.0074316972       -2.3106821553        2.7134784826
 C          1.4292253366       -2.0053091170        3.0105784696
 H          1.6615053616       -1.3852646958        3.8634876131
 H          2.1675224656       -2.7683555026        2.8097622887
 H         -0.7685236819       -1.8976973819        3.3585298907
 H         -0.2457444859       -3.2866400141        2.3183014867
 H          0.5293190252       -0.3157957794        1.8902479166
