  62
        -98.93516398
 C          1.6728797743        1.0823064886       -0.7085561549
 C          1.9681906424       -0.1214348061       -0.0297447221
 C          3.3981159587       -0.4281697548        0.1733124671
 C          4.3241363883        0.4205953221       -0.3078481780
 C          5.8270096168        0.3276858885       -0.2236637320
 C          6.4505865761       -1.0496356675       -0.4970658186
 C          7.0336984621       -1.7122324698        0.7523173373
 H          7.8026099624       -2.4241051504        0.4437900294
 H          7.5241481557       -0.9452906338        1.3554820360
 C          6.0260488697       -2.4672362401        1.6174373065
 H          5.7227737840       -3.3818606919        1.1034393593
 H          6.5373795399       -2.7652822896        2.5358437401
 C          4.7661502349       -1.6830390475        1.9899162347
 H          5.0171876574       -0.6524153839        2.2382555965
 H          4.3469182678       -2.1340783004        2.8918527204
 C          3.6794798173       -1.7122881931        0.9047173897
 H          3.9041591751       -2.4938022362        0.1732700368
 H          2.7195649054       -1.9869014325        1.3531414691
 H          5.7160676974       -1.7028831059       -0.9651853628
 H          7.2620228588       -0.9106134604       -1.2133370168
 H          6.1958461974        1.0529685907       -0.9525834176
 H          6.1416225437        0.6883021835        0.7589452164
 O          3.9887996391        1.5724170789       -0.9591945255
 C          2.6721588675        1.9373811686       -1.1679288481
 O          2.5235218112        3.0254927063       -1.7608778155
 H         -2.2150805895        0.4124447762       -0.2514980962
 C         -1.7465754948        0.9527448424        0.5527487623
 C         -0.5142063210        1.5555475668        0.3608734958
 C          0.0535986599        2.2643749224        1.4168426260
 C         -0.5898206374        2.3497671940        2.6356807804
 C         -1.8162197711        1.7372086121        2.8266630040
 C         -2.3959621111        1.0346911296        1.7776541166
 N         -3.6170220436        0.3742486198        1.9535102341
 S         -4.6874195155        0.1408356277        0.6975391250
 O         -4.7672546155        1.2984600630       -0.1628867373
 O         -5.9219286602       -0.2449234819        1.3479055239
 C         -4.0441041838       -1.2522675232       -0.2059174748
 C         -4.2030448931       -1.2837679129       -1.5773629603
 C         -3.7249370014       -2.3757325377       -2.2841458234
 C         -3.1006471455       -3.4134239647       -1.6095882122
 C         -2.9543837559       -3.3693009117       -0.2316127115
 C         -3.4326342421       -2.2816070626        0.4811999382
 H         -3.3258111542       -2.2140711688        1.5509259627
 H         -2.4637754019       -4.1758070375        0.2891863230
 H         -2.7233982999       -4.2600024554       -2.1614587485
 H         -3.8374754164       -2.4120251504       -3.3562127178
 H         -4.6850827327       -0.4491430238       -2.0618195334
 H         -4.0744948123        0.5194473979        2.8404799432
 H         -2.3174002877        1.7982593160        3.7806477969
 H         -0.1347471546        2.8993467882        3.4461481090
 H          1.0126844541        2.7425380799        1.2683479859
 C          0.2279819257        1.4780787192       -0.9509504625
 H          0.2569429121        2.4882060738       -1.3858758907
 C         -0.4060965938        0.5343404780       -1.9518363238
 C         -1.5253374059        1.0038732425       -2.8299840684
 C         -0.1662254531        0.7621344149       -3.4128733435
 H         -0.0244968996       -0.0958791365       -4.0523797804
 H          0.4346798428        1.6167861435       -3.6885706446
 H         -1.8591074657        2.0241967313       -2.7141771566
 H         -2.3161867679        0.3092870100       -3.0689350184
 H         -0.4267714696       -0.4914874077       -1.6012956754
 O          1.0819056403       -0.9077547384        0.3946184250
