  62
        -98.94473175
 C         -1.8272475999       -0.0173948304        0.0663727488
 C         -2.7932019799       -0.8590484310        0.6676963080
 C         -4.1411398599       -0.2948916011        0.7946496685
 C         -4.3821956400        0.9587621793        0.3693758996
 C         -5.6995373000        1.6813748892        0.4513703003
 C         -6.6577029400        1.3651795602       -0.7053108900
 C         -7.2901567399       -0.0266275699       -0.6653582613
 H         -7.7428511999       -0.1906830508        0.3130206786
 H         -8.0959059899       -0.0330582192       -1.4021306413
 C         -6.3203724499       -1.1728410895       -0.9852130523
 H         -6.7898188999       -1.8603724489       -1.6924310629
 H         -5.4296246999       -0.7710169791       -1.4737966119
 C         -5.8897763199       -1.9956334006        0.2290634470
 H         -6.7562440399       -2.5119021910        0.6482042265
 H         -5.1760626099       -2.7524739303       -0.1059531937
 C         -5.2236726799       -1.1757239516        1.3416424277
 H         -4.7621997699       -1.8688843023        2.0491969871
 H         -5.9694258799       -0.5815330921        1.8690787682
 H         -7.4599390900        2.1061723902       -0.6753186493
 H         -6.1212829799        1.4948684911       -1.6481887899
 H         -6.1850990400        1.4528216383        1.4005332501
 H         -5.4700648600        2.7488343792        0.4259904913
 O         -3.4196082800        1.7443416798       -0.1838001796
 C         -2.1262902200        1.2743877300       -0.3662633100
 O         -1.3555808200        2.0902140705       -0.9068299493
 O         -2.5380772199       -2.0203258913        1.0850979870
 C         -0.4161398499       -0.5420641402       -0.1243094017
 C          0.5798489901        0.3570149292        0.5637127891
 C          0.3189484300        0.7788198980        1.8658975495
 C          1.1924319400        1.6188790774        2.5266231103
 C          2.3579990900        2.0426134680        1.9116221707
 C          2.6369320800        1.6151330592        0.6204250903
 C          1.7541861501        0.7721068698       -0.0437562305
 H          1.9913957301        0.4712581207       -1.0502779708
 N          3.8135737600        2.0203950398       -0.0275399293
 S          4.6642262401        0.9158115906       -0.9461309603
 O          6.0217040100        1.4182524007       -0.9523860299
 O          4.0520265301        0.7519557818       -2.2400321805
 C          4.5820446801       -0.6136770902       -0.0294304317
 C          5.0005990301       -0.6160741814        1.2868684083
 C          4.9251892401       -1.7936850320        2.0120801472
 C          4.4384276401       -2.9450026215        1.4117789462
 C          4.0317564101       -2.9287238303        0.0870676562
 C          4.1017077101       -1.7520444596       -0.6419667128
 H          3.7896058301       -1.6940896087       -1.6718692727
 H          3.6579021501       -3.8259635599       -0.3802743946
 H          4.3772728901       -3.8605298020        1.9787541753
 H          5.2439743801       -1.8107562230        3.0417899972
 H          5.3837665701        0.2914194082        1.7239964991
 H          4.4264841400        2.5992384493        0.5272950612
 H          3.0387616100        2.7064680075        2.4223174913
 H          0.9676933500        1.9461438365        3.5305124106
 H         -0.5906775000        0.4478613975        2.3481296092
 H         -0.3995181799       -1.5215103507        0.3774141274
 C         -0.1343174799       -0.7457667489       -1.5980944919
 C          0.7830784001       -1.8393339984       -2.0526837429
 C         -0.6930938499       -1.9569675083       -2.2810885430
 H         -1.0731741799       -1.8534465073       -3.2864475129
 H         -1.2504289599       -2.6542707088       -1.6726689736
 H          1.4218415701       -1.6510503176       -2.9030349227
 H          1.2260099601       -2.4636069391       -1.2917955334
 H         -0.1360077499        0.1852199816       -2.1550085410
