  62
        -98.93239507
 C          1.8876344812        1.2192268294        0.7653509112
 C          2.9268031814        1.1817829596       -0.1933041187
 C          3.9610456411        0.1372059593       -0.0110098189
 C          3.8452137907       -0.7296012311        1.0109154007
 C          4.7419711204       -1.8858171215        1.3674658803
 C          4.5506664103       -3.0968120910        0.4411522798
 C          4.4748704206       -2.7608136304       -1.0455904901
 H          4.2444069805       -3.6842051901       -1.5833300606
 H          3.6460489208       -2.0714074601       -1.2154143800
 C          5.7520771009       -2.1777183304       -1.6455802096
 H          6.5747793407       -2.8793297007       -1.4904699298
 H          5.5921137511       -2.0879913699       -2.7231083196
 C          6.1747645911       -0.8055872007       -1.1152418089
 H          6.9249867713       -0.4075918006       -1.8049007086
 H          6.6617624909       -0.8890932313       -0.1472346189
 C          5.0515225113        0.2244303295       -1.0519904387
 H          5.4974741915        1.2184256093       -0.9250474582
 H          4.5438559815        0.2615235700       -2.0225075888
 H          5.3688292501       -3.7972823313        0.6176321296
 H          3.6168796701       -3.5912011809        0.7194373694
 H          5.7796288305       -1.5656201317        1.3752564007
 H          4.4788251601       -2.1820266719        2.3854150302
 O          2.8010717206       -0.6789728213        1.8884427005
 C          1.8166443508        0.2812257990        1.7976060807
 O          0.9404194506        0.2078372788        2.6838840005
 O          3.0156708017        1.9697499100       -1.1690300783
 C          0.7683827714        2.2474094797        0.7504396414
 C         -0.3994049985        1.7369862703       -0.0534005990
 C         -0.2361685284        1.2869236908       -1.3600478992
 C         -1.3196409683        0.8145265114       -2.0781366496
 C         -2.5810283485        0.7700796714       -1.5092025399
 C         -2.7496572186        1.1973707809       -0.1988523597
 C         -1.6615143486        1.6803073503        0.5178575407
 H         -1.7964621988        2.0030614899        1.5412254808
 N         -4.0187814687        1.1391225509        0.3957153300
 S         -5.0041371190       -0.1733921087        0.0820920892
 O         -5.6703913387        0.0127546220       -1.1829430608
 O         -5.8674357892       -0.2769262490        1.2371693790
 C         -3.9214297793       -1.5894224989       -0.0169547812
 C         -3.0315095595       -1.8181777996        1.0136573789
 C         -2.1860190998       -2.9130461197        0.9383926386
 C         -2.2483805798       -3.7602458892       -0.1574704218
 C         -3.1525020095       -3.5214352886       -1.1807699319
 C         -3.9962632793       -2.4244999784       -1.1133940515
 H         -4.7082289791       -2.1968194479       -1.8901915116
 H         -3.1996752795       -4.1831946982       -2.0305209822
 H         -1.5871552399       -4.6106676494       -0.2118002421
 H         -1.4782510300       -3.0926984902        1.7321876786
 H         -2.9987433395       -1.1480569999        1.8578306592
 H         -4.0344834489        1.3923773905        1.3724024301
 H         -3.4353677984        0.4157555119       -2.0627933702
 H         -1.1825228782        0.4762345318       -3.0939166897
 H          0.7474033117        1.3181460208       -1.8039843190
 H          0.4373040513        2.3210654993        1.7988600214
 C          1.2273494318        3.6365572998        0.3296163221
 C          0.8168961822        4.3000351304       -0.9468240277
 C          0.2539315521        4.7781832700        0.3555630924
 H          0.5796837922        5.7298477597        0.7474139729
 H         -0.7791489680        4.5439208901        0.5663387721
 H          1.5533221825        4.9066148105       -1.4512397573
 H          0.1634115222        3.7648965509       -1.6172459681
 H          2.2329085118        3.8504475294        0.6765947424
