  62
        -98.93906173
 C         -2.3149940392       -0.8529411190        0.6384545903
 C         -3.4206150885       -0.9441828861       -0.2426764345
 C         -4.5447808252       -0.0378524983        0.0407793238
 C         -4.4794199864        0.7950145540        1.0941994920
 C         -5.5259070543        1.8072351607        1.4579352665
 C         -5.2417900569        3.1626069938        0.7954092724
 C         -4.9495656306        3.0694060937       -0.7022958656
 H         -4.7959215777        4.0874293667       -1.0668413385
 H         -4.0101313428        2.5310781151       -0.8491517794
 C         -6.0555955695        2.3931654595       -1.5244424451
 H         -6.9860129029        2.3832583680       -0.9556445229
 H         -6.2324150735        2.9843094853       -2.4254047277
 C         -5.7263951938        0.9711278150       -1.9822905432
 H         -4.7484695584        0.9604996942       -2.4701219030
 H         -6.4682398296        0.6741784049       -2.7283403994
 C         -5.7280297736       -0.0998093792       -0.8842401155
 H         -6.6609195409       -0.0477100343       -0.3196858276
 H         -5.6750455665       -1.0768486110       -1.3729576998
 H         -6.1016767779        3.8142765492        0.9607752061
 H         -4.3749261484        3.6120049252        1.2855958929
 H         -6.5026641044        1.4383465657        1.1511994307
 H         -5.5187742782        1.9338389508        2.5418386530
 O         -3.4123524410        0.8395578293        1.9329155778
 C         -2.3103276537        0.0304535097        1.7226156143
 O         -1.4033140791        0.1794753938        2.5676284037
 H          1.2816630373       -0.3955818998        0.7791161014
 C          1.0159873871       -0.5133563829       -0.2619631382
 C         -0.1693925691       -1.1471556998       -0.6073874439
 C         -0.5001392248       -1.2621125614       -1.9538845607
 C          0.3473078240       -0.7631369146       -2.9259383619
 C          1.5424851483       -0.1583327740       -2.5797226032
 C          1.8749633946       -0.0250193997       -1.2364758767
 N          3.0662185863        0.6128579758       -0.8552880112
 S          3.8639772121        0.0766292488        0.5317684427
 O          3.8705549926       -1.3685219572        0.5721195440
 O          3.3070467108        0.7470062232        1.6799318393
 C          5.5074906077        0.6921056744        0.2156388725
 C          6.4628748727       -0.1600334752       -0.3051207718
 C          7.7286869730        0.3366176259       -0.5742807682
 C          8.0149640476        1.6699180616       -0.3225394196
 C          7.0458954301        2.5129110341        0.2014149710
 C          5.7788211178        2.0225731338        0.4743745405
 H          4.9967471838        2.6360183484        0.8909054312
 H          7.2729978577        3.5480774329        0.3991768544
 H          9.0005076513        2.0541161757       -0.5329157851
 H          8.4852350728       -0.3169643058       -0.9775750010
 H          6.1966414923       -1.1906070864       -0.4766210639
 H          3.7028280503        0.7534553229       -1.6278651274
 H          2.2093092349        0.2172963764       -3.3410393486
 H          0.0794232396       -0.8574130708       -3.9675240643
 H         -1.4335678082       -1.7283616761       -2.2271594309
 C         -1.0598082330       -1.6975883604        0.4818299502
 H         -0.5151040211       -1.5942386890        1.4308305989
 C         -1.3524114007       -3.1692653497        0.2602741816
 C         -0.2534265106       -4.1608946637        0.4903582121
 C         -1.4106938279       -4.0891947833        1.4402087621
 H         -2.1345213224       -4.8902814612        1.4336913987
 H         -1.2424925160       -3.6600869224        2.4177928946
 H          0.7019361080       -3.7788045949        0.8207308064
 H         -0.1816035815       -5.0127806640       -0.1682817403
 H         -2.0421989467       -3.3573709351       -0.5513183572
 O         -3.4923623182       -1.7349735119       -1.2196183878
