  62
        -98.94096967
 C          1.5868145568        0.0535242624       -0.7988474985
 C          2.8795074986        0.1510988836       -1.3751283720
 C          3.9747882935       -0.4664104459       -0.6198590211
 C          3.7159276829       -1.0707147726        0.5535924130
 C          4.7200758041       -1.7663803911        1.4321547968
 C          5.4881772181       -0.8241692394        2.3691334515
 C          6.5300684726        0.0639566876        1.6878068851
 H          7.1387095817        0.5080830939        2.4780339376
 H          7.1899881852       -0.5537249203        1.0777688969
 C          5.9376999273        1.1907132961        0.8297661792
 H          4.8889532135        1.3394914500        1.0974877653
 H          6.4584190198        2.1262095381        1.0467268625
 C          6.0352102088        0.9574994791       -0.6779828148
 H          5.5537062995        1.7965652636       -1.1868695598
 H          7.0850231544        0.9397194625       -0.9791819825
 C          5.3662484144       -0.3358261806       -1.1616596465
 H          5.2976973547       -0.2988557666       -2.2517380669
 H          5.9679381852       -1.1992150446       -0.8781259962
 H          4.7685449924       -0.1982487761        2.9018585593
 H          5.9996586966       -1.4452465625        3.1081711534
 H          4.1591109500       -2.4766301493        2.0432437978
 H          5.4261038445       -2.3212766358        0.8136348337
 O          2.4664061705       -1.1317060544        1.0812241800
 C          1.3740422581       -0.5541071969        0.4403914436
 O          0.3106317435       -0.6627072110        1.0753974713
 O          3.1075978209        0.7300677043       -2.4708264371
 C          0.4374914854        0.7063435686       -1.5465437721
 C         -0.3586027435        1.5730056090       -0.6059189206
 C          0.2387868828        2.7111284283       -0.0701487888
 C         -0.4453778675        3.5117674812        0.8234321651
 C         -1.7388789794        3.1952625800        1.2001996546
 C         -2.3416028738        2.0583783089        0.6749732058
 C         -1.6535942867        1.2599681274       -0.2282013957
 H         -2.1313170120        0.3786686402       -0.6200853177
 N         -3.6274694277        1.6880755349        1.0775635038
 S         -4.6223497869        0.7137908652        0.1722137862
 O         -4.5831988508        1.0622780330       -1.2301373993
 O         -5.9175332870        0.8391463538        0.8079849875
 C         -4.0232074928       -0.9484523036        0.4000595281
 C         -3.3111059963       -1.2852439582        1.5328329068
 C         -2.8898320611       -2.5956791021        1.6913757585
 C         -3.1933919854       -3.5438753831        0.7273683824
 C         -3.9158112194       -3.1914881408       -0.4021570197
 C         -4.3342739461       -1.8814478251       -0.5699100648
 H         -4.8851474285       -1.5608015975       -1.4401750937
 H         -4.1488926372       -3.9301655400       -1.1526666579
 H         -2.8611448174       -4.5622727363        0.8542170449
 H         -2.3170864430       -2.8673621216        2.5633351553
 H         -3.0728739048       -0.5286083096        2.2612905446
 H         -4.1184126818        2.3253123972        1.6842939089
 H         -2.2736224756        3.8155302751        1.9032233968
 H          0.0300055521        4.3909801158        1.2319565341
 H          1.2527752494        2.9540010667       -0.3583712766
 H          0.9301624313        1.3649340240       -2.2815784126
 C         -0.4254273760       -0.2598803045       -2.3434193142
 C          0.1713447747       -1.4830172307       -2.9710338454
 C         -0.7999938027       -1.6201415000       -1.8389786698
 H         -1.7936117440       -1.9852161722       -2.0552755663
 H         -0.4320764085       -1.9178092613       -0.8699908409
 H         -0.1493089824       -1.7605167115       -3.9638254887
 H          1.2149473646       -1.6829192252       -2.7758759934
 H         -1.1799234081        0.2626805988       -2.9252267122
