  62
        -98.94258243
 C         -1.8125984424       -1.5646042309        0.1277310857
 C         -1.4688726587       -0.1891444520        0.0856424865
 C         -2.5188427684        0.7393624528        0.5322077277
 C         -3.7053979896        0.2694110668        0.9535272590
 C         -4.8659187551        1.0954419194        1.4379889463
 C         -5.7450968783        1.6566723656        0.3117393806
 C         -5.1261968801        2.8024418325       -0.4904554841
 H         -4.7712870275        3.5729521041        0.1946337196
 H         -5.9271762341        3.2424268454       -1.0880281504
 C         -3.9870110527        2.3790798095       -1.4286375805
 H         -4.1308284301        2.8429458872       -2.4071514724
 H         -4.0237558938        1.2977186491       -1.5800341063
 C         -2.5898084731        2.7649353021       -0.9425857219
 H         -2.5017012827        3.8530647168       -0.9140664978
 H         -1.8587455884        2.3855253766       -1.6607940733
 C         -2.2282191124        2.2065484477        0.4394986464
 H         -2.7639642339        2.7497625756        1.2174827854
 H         -1.1539259813        2.3337086083        0.5907993273
 H         -6.6676938046        2.0203286200        0.7702312751
 H         -6.0111256162        0.8403722490       -0.3640711003
 H         -5.4787264002        0.4374596314        2.0580457180
 H         -4.5001276262        1.9144426948        2.0579764562
 O         -3.9854175237       -1.0606329857        1.0064063219
 C         -3.0518574439       -2.0016552473        0.6042577949
 O         -3.4366004006       -3.1826010945        0.7235378443
 H          1.4626050836       -1.7707891347       -1.5154585617
 C          1.5823769274       -1.8888481395       -0.4499017179
 C          0.5207660704       -2.3408996024        0.3163250187
 C          0.6916754852       -2.4509103262        1.6928263710
 C          1.8939154225       -2.1120935124        2.2848323553
 C          2.9492699298       -1.6509501305        1.5176203858
 C          2.7853928004       -1.5323689046        0.1441016524
 N          3.8462522117       -1.0578512217       -0.6508123597
 S          4.5885738095        0.3827702028       -0.2347797085
 O          5.3706871187        0.7428621821       -1.3968177667
 O          5.3257618305        0.1983549887        0.9907612864
 C          3.2881329311        1.5769654206        0.0108335000
 C          2.7763112183        2.2248415188       -1.0950920049
 C          1.7698097125        3.1586891076       -0.9190335434
 C          1.2909525407        3.4231958172        0.3541694875
 C          1.8045395792        2.7526052114        1.4527920469
 C          2.8129169352        1.8183510243        1.2829991451
 H          3.2436889930        1.2840497598        2.1139976246
 H          1.4209107441        2.9524096827        2.4408954910
 H          0.5134885755        4.1591144795        0.4901265570
 H          1.3597106353        3.6751845263       -1.7721678057
 H          3.1857098133        2.0021378306       -2.0675561570
 H          3.6256934992       -1.0472528786       -1.6366149946
 H          3.8898911490       -1.3704498826        1.9633259560
 H          2.0107681303       -2.2025884460        3.3544487217
 H         -0.1386606435       -2.7929302469        2.2961446560
 C         -0.8293171669       -2.6505834830       -0.2788021030
 H         -1.2083112311       -3.5723030296        0.1913338713
 C         -0.7775902596       -2.9151094288       -1.7764047058
 C         -2.0242068787       -2.8437236014       -2.6053585389
 C         -0.9398921603       -1.8279876458       -2.7944892078
 H         -0.3462352134       -1.8780137440       -3.6960437795
 H         -1.1052748372       -0.8243021847       -2.4359893091
 H         -2.9344510159       -2.5387772236       -2.1097846268
 H         -2.1751172712       -3.5881338934       -3.3726477330
 H         -0.0828882710       -3.7133865219       -2.0207898314
 O         -0.3601250428        0.2596763603       -0.2996988411
