  62
        -98.93722989
 C         -1.6388768873       -1.5460584890        0.3255872187
 C         -1.8985172392       -0.4252194868        1.1528146148
 C         -3.1380279918        0.3095385495        0.8496147207
 C         -4.0243262660       -0.1909389052       -0.0270214218
 C         -5.3350269083        0.4333761896       -0.4220338056
 C         -5.2113851098        1.4930695598       -1.5255638663
 C         -4.5671624401        2.8116438223       -1.0942866556
 H         -4.7415984735        3.5317902303       -1.8961719582
 H         -5.0714852062        3.1879941017       -0.2038707043
 C         -3.0565693008        2.7234192073       -0.8320896553
 H         -2.6605853418        1.8095584232       -1.2813164530
 H         -2.5491555663        3.5612047603       -1.3161606691
 C         -2.6639647200        2.7536298353        0.6456655250
 H         -1.5771980481        2.6413991505        0.7142754403
 H         -2.9265897964        3.7238971067        1.0741921362
 C         -3.3180246098        1.6516970770        1.4904098195
 H         -4.3759338702        1.8687301924        1.6389049033
 H         -2.8234761656        1.6249708212        2.4645127139
 H         -4.6450617729        1.0672141313       -2.3569358041
 H         -6.2202267129        1.7078846456       -1.8853819709
 H         -5.9670683135       -0.3769024873       -0.7915537562
 H         -5.8102359831        0.8735010537        0.4550650019
 O         -3.8287175112       -1.3843702645       -0.6484036565
 C         -2.6256124270       -2.0652353162       -0.5202465902
 O         -2.5728134932       -3.1218372714       -1.1754366779
 O         -1.1708691954       -0.0449761126        2.1056240943
 C         -0.3147201968       -2.3029311122        0.3323001975
 C          0.6671449952       -1.7708749909        1.3428588305
 C          0.9073571690       -2.4320618595        2.5398684214
 C          1.8307057736       -1.9333782849        3.4420596595
 C          2.5367412301       -0.7785788446        3.1630068774
 C          2.3137990176       -0.1181117107        1.9583893288
 C          1.4007650678       -0.6284860853        1.0530295266
 H          1.2061264705       -0.0885415613        0.1419281995
 N          3.0477440050        1.0268184222        1.6291815837
 S          2.6418571377        2.0491444867        0.3821908841
 O          3.5741859005        3.1493591016        0.5209334182
 O          1.2454208278        2.4167090090        0.3644656698
 C          3.0556355742        1.1138929256       -1.0773097043
 C          4.2482383203        0.4188501386       -1.1036319552
 C          4.5774745738       -0.3040626104       -2.2388807844
 C          3.7151311223       -0.3182901885       -3.3248474019
 C          2.5236614970        0.3895490160       -3.2859625142
 C          2.1896434668        1.1137644465       -2.1525211350
 H          1.2672743962        1.6692732398       -2.0759178020
 H          1.8522214859        0.3768402277       -4.1299630543
 H          3.9700020067       -0.8851368409       -4.2065549026
 H          5.5020981804       -0.8573072166       -2.2728382884
 H          4.8927496714        0.4511177447       -0.2414496342
 H          3.5550114700        1.4714046257        2.3777419423
 H          3.2468785707       -0.3821585856        3.8726047138
 H          1.9981104458       -2.4471343001        4.3769799826
 H          0.3468592124       -3.3263123643        2.7737736214
 H         -0.5348535762       -3.3547956127        0.5692823918
 C          0.3181251551       -2.2523769199       -1.0565853062
 C          1.6335066980       -2.9372939818       -1.2910166254
 C          0.3861382471       -3.4698504841       -1.9232973471
 H          0.2431038779       -3.3443869586       -2.9855788095
 H         -0.0473948006       -4.3792994971       -1.5380630456
 H          2.3631440365       -2.4448313079       -1.9153881638
 H          2.0589530252       -3.4853484821       -0.4642841213
 H          0.1593060287       -1.3061995693       -1.5646299627
