  62
        -98.94488301
 C         -1.9174755250       -0.1596671877        0.0479928077
 C         -2.9288962982       -1.0409170884        0.4997826314
 C         -4.2441762558       -0.4367871363        0.7477733060
 C         -4.4052473780        0.8859966403        0.5603162801
 C         -5.7026406374        1.6220739817        0.7258464117
 C         -6.4813570735        1.6793339781       -0.5958542977
 C         -6.6116752152        0.3262198622       -1.2952312666
 H         -7.2045322670        0.4833247212       -2.1989671201
 H         -5.6213809101       -0.0062595934       -1.6149993870
 C         -7.2629128266       -0.7701688426       -0.4406088791
 H         -7.8028486546       -0.3185912447        0.3924179791
 H         -7.9956416703       -1.3012182880       -1.0518775691
 C         -6.2872759180       -1.8188335446        0.0966746606
 H         -5.6783740926       -2.2065390728       -0.7239333470
 H         -6.8706528305       -2.6536501391        0.4940382551
 C         -5.3473227674       -1.3455354423        1.2125912433
 H         -5.9281358684       -0.8724946532        2.0069251549
 H         -4.8527380263       -2.2288600406        1.6270876815
 H         -7.4748197803        2.0839860014       -0.3939565061
 H         -5.9657296625        2.3656250123       -1.2716779804
 H         -6.2998087072        1.1286026380        1.4901852321
 H         -5.4810952154        2.6399717501        1.0510050451
 O         -3.4036544894        1.7048912681        0.1488355465
 C         -2.1381793717        1.2063011629       -0.1273576233
 O         -1.3210205851        2.0651524182       -0.5089864873
 O         -2.7382313196       -2.2720258499        0.6911315018
 C         -0.5382099695       -0.7226433534       -0.2479729623
 C          0.4881117915       -0.0371459752        0.6184516335
 C          0.3104880944       -0.0611051857        2.0005320522
 C          1.2012187818        0.5778070855        2.8393437047
 C          2.2974686984        1.2447570365        2.3194735123
 C          2.4884037573        1.2701479810        0.9440983960
 C          1.5900893990        0.6249802577        0.1026715327
 H          1.7553748421        0.6790298964       -0.9596724108
 N          3.5830977271        1.9544509220        0.3917114545
 S          4.5014407145        1.2566615681       -0.8169465324
 O          5.7135484368        2.0449769846       -0.8499142297
 O          3.7533274577        1.1861452571       -2.0453185252
 C          4.8585068255       -0.3805163898       -0.2069721322
 C          4.0786756479       -1.4461004184       -0.6072672023
 C          4.3272520128       -2.6971909928       -0.0646648113
 C          5.3439794647       -2.8598090947        0.8633177728
 C          6.1219048291       -1.7794156482        1.2517617942
 C          5.8758361843       -0.5258745085        0.7164110567
 H          6.4635394800        0.3375294815        0.9831604606
 H          6.9151968946       -1.9104318299        1.9699496362
 H          5.5321921451       -3.8351118904        1.2836873473
 H          3.7246016553       -3.5386638465       -0.3674155759
 H          3.3003420171       -1.2820081133       -1.3337404303
 H          4.1743040203        2.4104804374        1.0711045537
 H          2.9907723725        1.7532794279        2.9720775843
 H          1.0445804959        0.5567593639        3.9072692101
 H         -0.5479772042       -0.5797229334        2.4052385811
 H         -0.5888259972       -1.7806995622        0.0490264622
 C         -0.2436397007       -0.6482914929       -1.7306160736
 C          0.6642757450       -1.6547250563       -2.3693444087
 C         -0.8096158018       -1.6983505979       -2.6373470017
 H         -1.1693623775       -1.3995343782       -3.6105641657
 H         -1.3884712468       -2.4879856965       -2.1807160562
 H          1.3233376653       -1.3254877117       -3.1593946610
 H          1.0777525161       -2.4241609661       -1.7346887506
 H         -0.2224669713        0.3692835833       -2.1055080270
