  62
        -98.93437813
 C          1.7260765688        1.0627230102       -0.7174579455
 C          1.8636260530        0.3112683178        0.4739377391
 C          3.2462263666        0.0501833129        0.9235396509
 C          4.2740787633        0.5619900242        0.2262288799
 C          5.7431445241        0.3670499120        0.4806668020
 C          6.2851489305       -0.8115010010       -0.3459431492
 C          6.1560305430       -2.1801573471        0.3216641817
 H          6.4515508572       -2.9300214737       -0.4158182311
 H          6.8628290242       -2.2417088458        1.1518825649
 C          4.7585678965       -2.5262667859        0.8423578954
 H          4.0082200424       -2.2295489512        0.1074133652
 H          4.6995715157       -3.6116199488        0.9439161090
 C          4.4438282580       -1.8826857149        2.2010650412
 H          5.3658968886       -1.4919582575        2.6312070558
 H          4.0831572405       -2.6500817871        2.8890289530
 C          3.3777228939       -0.7767651161        2.1734837625
 H          2.3874558913       -1.2205896544        2.3160726378
 H          3.5406877673       -0.1026260619        3.0209852550
 H          5.7598480818       -0.8177809954       -1.3046046432
 H          7.3423118555       -0.6357958520       -0.5553293152
 H          6.2403929318        1.2814210342        0.1501650507
 H          5.9361729984        0.2267355965        1.5400592632
 O          4.0946673923        1.3239274241       -0.8884865756
 C          2.8329165281        1.5948942829       -1.3829191616
 O          2.8248953376        2.3176227207       -2.3997538822
 H         -2.0242170541        0.3062631913       -0.4252030598
 C         -1.7464721082        1.2012795409        0.1047925521
 C         -0.5679768552        1.8591882720       -0.2054988188
 C         -0.2281870405        2.9986676034        0.5199310360
 C         -1.0448585450        3.4605343126        1.5328621974
 C         -2.2276209746        2.8068931154        1.8322243082
 C         -2.5761245550        1.6702809059        1.1140160879
 N         -3.7526780997        0.9697866380        1.4101452519
 S         -4.6285077401        0.2201239763        0.2046938869
 O         -4.5927630781        0.9706417793       -1.0297357034
 O         -5.9418995532        0.0208263724        0.7812208707
 C         -3.8566740178       -1.3682578408       -0.0219930551
 C         -3.3206149700       -2.0246006468        1.0675755408
 C         -2.7621060803       -3.2792098434        0.8833613302
 C         -2.7573639728       -3.8581137998       -0.3762916052
 C         -3.3048129174       -3.1882747758       -1.4596646331
 C         -3.8599751531       -1.9305450290       -1.2832803157
 H         -4.2838925050       -1.3689292986       -2.1006931400
 H         -3.2988942540       -3.6389178880       -2.4396524835
 H         -2.3210241571       -4.8346090546       -0.5159672925
 H         -2.3296270823       -3.7997669057        1.7225124047
 H         -3.3332638806       -1.5457932876        2.0322701363
 H         -4.3414635265        1.3835108099        2.1172543798
 H         -2.8701822875        3.1680901211        2.6208890555
 H         -0.7642217059        4.3412905002        2.0910099467
 H          0.6946148553        3.5116549353        0.2827653726
 C          0.3625134699        1.3953243311       -1.2983314210
 H          0.5409033219        2.2534371765       -1.9682581442
 C         -0.2315132069        0.2902992663       -2.1592260712
 C          0.6519716415       -0.6242921974       -2.9527387870
 C         -0.1270413348       -1.1577442027       -1.7900596390
 H         -0.9743843651       -1.7975205269       -1.9886343591
 H          0.3998575868       -1.4044323122       -0.8825078205
 H          1.7202215449       -0.5026820437       -2.8452973240
 H          0.3429071031       -0.8961060945       -3.9507814898
 H         -1.1531523756        0.6063623673       -2.6401444403
 O          0.8931468345       -0.1351045449        1.1375277354
