  62
        -98.94606242
 C          1.5173793612        1.1154811276        0.1972489514
 C          2.5377893114        0.6332080340        1.0537430165
 C          3.0618374799       -0.7044445889        0.7523676726
 C          2.5123057979       -1.4132942621       -0.2503679433
 C          2.9716820685       -2.7718774791       -0.6924946888
 C          4.0373874574       -2.6698206956       -1.7928995735
 C          5.1730097474       -1.7007483171       -1.4637578672
 H          5.8795243886       -1.7326745282       -2.2958206341
 H          4.7727880753       -0.6852589164       -1.4200220627
 C          5.9111765806       -2.0097249627       -0.1538441336
 H          5.7083031956       -3.0366137846        0.1521906574
 H          6.9858964358       -1.9294509147       -0.3296877817
 C          5.5774238734       -1.0631710948        1.0007792933
 H          5.6909269859       -0.0275066445        0.6703768153
 H          6.3034087771       -1.2326043883        1.8003753375
 C          4.1797417640       -1.2226997714        1.6128783344
 H          4.1483157982       -0.6297209924        2.5319891547
 H          4.0084802803       -2.2688849293        1.8762358366
 H          3.5537501134       -2.3320159621       -2.7122976025
 H          4.4462819832       -3.6662107449       -1.9698963740
 H          3.3688463194       -3.3105372211        0.1659202009
 H          2.1072213069       -3.3150010630       -1.0787111502
 O          1.4954547716       -0.9447483509       -1.0133878052
 C          0.9654472387        0.3195412542       -0.8068359242
 O          0.0301924989        0.6045714969       -1.5790881864
 O          2.9861249504        1.2931419103        2.0309763338
 C          0.9399915825        2.4896813044        0.4873027918
 C         -0.5668640953        2.4192218607        0.4923178160
 C         -1.3897739621        3.2844165579       -0.2167226159
 C         -2.7661459092        3.1383180601       -0.1741727719
 C         -3.3480699939        2.1151857203        0.5506085920
 C         -2.5320602624        1.2439784103        1.2630510323
 C         -1.1597129873        1.4195954617        1.2551990601
 H         -0.5410449668        0.7317891223        1.8143869087
 N         -3.0649027544        0.1536626478        1.9872100438
 S         -2.7153378347       -1.3669457591        1.3674964404
 O         -3.3806833632       -2.2992398983        2.2535173132
 O         -1.2906837925       -1.5244849822        1.2294567929
 C         -3.5315379822       -1.3823083498       -0.2193477869
 C         -4.7888963665       -1.9504724686       -0.3045432798
 C         -5.4698755315       -1.8986704383       -1.5094522064
 C         -4.8889762819       -1.2708138995       -2.6014221145
 C         -3.6292087448       -0.7023538309       -2.4971554818
 C         -2.9376175948       -0.7540294618       -1.2955576364
 H         -1.9531981025       -0.3218701092       -1.1977227637
 H         -3.1706904551       -0.2121264529       -3.3409704534
 H         -5.4195065885       -1.2248268821       -3.5394277454
 H         -6.4486749057       -2.3429753925       -1.5922896153
 H         -5.1976590548       -2.4285059691        0.5711666629
 H         -4.0634241015        0.2192894062        2.1362575687
 H         -4.4196836668        1.9831660593        0.5611769973
 H         -3.3919747460        3.8180891615       -0.7318318179
 H         -0.9551811879        4.0631550169       -0.8214228545
 H          1.2697768109        2.7095716677        1.5174035085
 C          1.4949150260        3.6007399212       -0.3924039237
 C          2.8166787619        3.4540517327       -1.0836065890
 C          1.5515969452        3.4781658894       -1.8848109530
 H          1.3411837736        4.3543829483       -2.4803581021
 H          1.2002124099        2.5560394206       -2.3199742498
 H          3.4718267126        4.3114090913       -1.1235796816
 H          3.3362356873        2.5126974732       -0.9759479782
 H          1.2751450635        4.5854958379        0.0082337318
