  62
        -98.93888344
 C          2.0180915201        1.3594832908        0.0111242000
 C          2.6267242904        0.7473194015        1.1300917002
 C          3.8199387806       -0.0734499083        0.8615261904
 C          4.2488111705       -0.2049887587       -0.4059784996
 C          5.3999503306       -1.0383380786       -0.8972767494
 C          4.9120322610       -2.4260265989       -1.3469475287
 C          4.8332553414       -3.4734881585       -0.2365717883
 H          4.3465989116       -4.3566394188       -0.6571698178
 H          5.8446646715       -3.7647816381        0.0544978317
 C          4.0693472615       -3.0425841781        1.0184439717
 H          3.7618446318       -3.9457677180        1.5494806121
 H          3.1590317013       -2.5131576885        0.7301541116
 C          4.9072288114       -2.1701351475        1.9653994312
 H          5.9528424013       -2.2222153573        1.6625817210
 H          4.8566821616       -2.5829550771        2.9750545713
 C          4.4715899810       -0.6997258476        2.0642337406
 H          3.7339685411       -0.5922111274        2.8657776906
 H          5.3352527408       -0.0906832272        2.3506587202
 H          5.5871930110       -2.8022984091       -2.1181369787
 H          3.9281688309       -2.3021781294       -1.8074443086
 H          6.1702919308       -1.1195111981       -0.1361665395
 H          5.8133585204       -0.5185484489       -1.7640320997
 O          3.6230796602        0.3892846607       -1.4584567698
 C          2.4944886900        1.1734828404       -1.2866587399
 O          2.0237955397        1.6360919598       -2.3419151301
 O          2.1834872406        0.8692016219        2.3052789602
 C          0.7786757599        2.2107810706        0.2223024499
 C         -0.3975430900        1.5774147900       -0.4799160197
 C         -1.2303004503        2.2585102794       -1.3568630999
 C         -2.2789341802        1.6022535788       -1.9795958194
 C         -2.5273234398        0.2650176788       -1.7343688788
 C         -1.7146303695       -0.4200350106       -0.8386430587
 C         -0.6660962396        0.2389335600       -0.2164529691
 H         -0.0310101994       -0.2972081295        0.4780526111
 N         -1.9686124491       -1.7736806505       -0.5648531880
 S         -3.5562033489       -2.2577695009       -0.3576638876
 O         -3.4877069785       -3.4165952705        0.5049475929
 O         -4.1716297991       -2.4694601316       -1.6442743974
 C         -4.3609594692       -0.9021430507        0.4785153219
 C         -5.4467379995       -0.2814530813       -0.1045459682
 C         -6.0415831497        0.7847015488        0.5510366814
 C         -5.5397595696        1.2119453895        1.7703038012
 C         -4.4502648793        0.5754040300        2.3453118713
 C         -3.8534255591       -0.4926313101        1.6957347517
 H         -3.0074955889       -1.0099298496        2.1198298418
 H         -4.0606345393        0.9085489406        3.2939160611
 H         -5.9995348098        2.0452865096        2.2775911509
 H         -6.8901537699        1.2799005984        0.1074124413
 H         -5.8015142595       -0.6438061818       -1.0556643880
 H         -1.3618669689       -2.1760783800        0.1336109521
 H         -3.3256927998       -0.2631349416       -2.2297344385
 H         -2.9092856905        2.1400339983       -2.6709725896
 H         -1.0514970407        3.3000729293       -1.5651770303
 H          0.5857381501        2.1784361710        1.3048461299
 C          1.0355317194        3.6459443505       -0.1831563308
 C          0.2526954292        4.7565904605        0.4491730988
 C          1.6979320293        4.5668763411        0.7958217287
 H          2.4179914991        5.2810494911        0.4254571483
 H          1.9445646896        4.1644528816        1.7676102989
 H         -0.0197597011        5.6062653802       -0.1583073915
 H         -0.4848246706        4.4885132107        1.1901823091
 H          1.3144530993        3.7416558301       -1.2262657009
