  62
        -98.94439282
 C         -1.9281064791       -1.3526356245        0.0850238237
 C         -2.1926441547       -0.3955355908       -0.9243461728
 C         -3.5629546381        0.1382582248       -0.9633978925
 C         -4.4735083403       -0.2947126302       -0.0737010833
 C         -5.8824441292        0.2101871611        0.0324838691
 C         -5.9787490300        1.3863762828        1.0142904101
 C         -4.9346753032        2.4776391474        0.7769331441
 H         -5.1194291248        3.2686345517        1.5070925683
 H         -3.9414167878        2.0738624077        0.9875027931
 C         -4.9496862411        3.0744799714       -0.6373308452
 H         -4.8757712805        4.1612794645       -0.5591377419
 H         -5.8989214558        2.8489637761       -1.1247049204
 C         -3.7983276157        2.6136214023       -1.5330842368
 H         -2.8492844459        2.7534436498       -1.0086543933
 H         -3.7797060344        3.2548704852       -2.4185177434
 C         -3.8729766443        1.1610163693       -2.0204573509
 H         -4.8523125334        0.9722217272       -2.4643722558
 H         -3.1134116293        1.0319619311       -2.7969135556
 H         -5.8469849922        1.0027594485        2.0286663248
 H         -6.9794464628        1.8160428697        0.9410207306
 H         -6.5130968084       -0.6043248828        0.3927775033
 H         -6.2292822542        0.5163406469       -0.9525355301
 O         -4.1902388484       -1.2229661268        0.8738648974
 C         -2.9222800344       -1.7644370120        0.9805878263
 O         -2.8029058015       -2.6019981773        1.8967528593
 O         -1.3458921636        0.0149410121       -1.7642648719
 C         -0.5731607473       -2.0171687610        0.2796902071
 C          0.3971120429       -1.1122066098        1.0003032991
 C          0.9440922131       -1.4784088212        2.2241747008
 C          1.8614860949       -0.6601164927        2.8611193652
 C          2.2512665723        0.5386889585        2.2914266310
 C          1.7029419247        0.9158891139        1.0726912777
 C          0.7907059857        0.0912428174        0.4324760378
 H          0.3696910668        0.3904230488       -0.5159393575
 N          2.1079280874        2.1285318987        0.4727733203
 S          3.7448957150        2.2123699018        0.1143776469
 O          4.4786953902        2.4995316562        1.3213014170
 O          3.8671704222        3.1842934422       -0.9487338089
 C          4.1473908834        0.5758938407       -0.4696854425
 C          3.6732802461        0.1932371458       -1.7086470258
 C          3.9071403221       -1.1001499806       -2.1451922405
 C          4.6007661876       -1.9862834876       -1.3353449648
 C          5.0688800589       -1.5869529407       -0.0934895605
 C          4.8386751275       -0.2940389118        0.3482742818
 H          5.1839338557        0.0577157424        1.3064502811
 H          5.6071232117       -2.2793047748        0.5333383696
 H          4.7783854943       -2.9945479346       -1.6751944001
 H          3.5421898430       -1.4120033402       -3.1108714922
 H          3.1397826414        0.9094277659       -2.3134050036
 H          1.5677738280        2.3489443069       -0.3526933991
 H          2.9712745591        1.1856628862        2.7661990922
 H          2.2775503699       -0.9588609032        3.8111152925
 H          0.6378926982       -2.4082976686        2.6808030261
 H         -0.7633027108       -2.8848246957        0.9249136327
 C          0.0382441349       -2.5109062477       -1.0187449832
 C          1.0773341395       -3.5880446465       -0.9668573624
 C         -0.2884951310       -3.8887823342       -1.5059501976
 H         -0.4048678960       -4.0450444974       -2.5678922638
 H         -0.9568017159       -4.4864750145       -0.9028613965
 H          1.9037154830       -3.5367671879       -1.6580595003
 H          1.3378159913       -3.9848834662        0.0024026630
 H          0.1525003300       -1.7342013924       -1.7627655024
