  62
        -98.94472188
 C          2.0752209771        0.3792328923       -0.1586223777
 C          3.0681131333        0.8344608552        0.7454528115
 C          4.2495604187       -0.0220918793        0.8891114843
 C          4.3163633711       -1.1838515388        0.2138974545
 C          5.4378946493       -2.1845850296        0.2833177451
 C          6.6214498605       -1.8638265683       -0.6398726198
 C          7.4937101808       -0.6890036169       -0.1954594544
 H          7.7951792719       -0.8341390493        0.8423922567
 H          8.3998174989       -0.7146429451       -0.8041630250
 C          6.8309064974        0.6864470359       -0.3541883271
 H          5.9767485915        0.6029595205       -1.0300365326
 H          7.5374286330        1.3798713901       -0.8158745805
 C          6.3644850050        1.3205640478        0.9562356332
 H          5.8783776074        2.2711651157        0.7227347290
 H          7.2292255141        1.5313175538        1.5892685812
 C          5.3726093829        0.4644162124        1.7545771436
 H          5.8887843871       -0.3767151046        2.2169157193
 H          4.9395904882        1.0855805126        2.5424003549
 H          6.2387357291       -1.6740186397       -1.6453616833
 H          7.2486760198       -2.7570507620       -0.6866736496
 H          5.0155524619       -3.1453997017       -0.0190968556
 H          5.7899012992       -2.2688782796        1.3119325525
 O          3.3278173046       -1.6025788402       -0.6190764841
 C          2.1945740569       -0.8312742878       -0.8413953449
 O          1.3955094252       -1.3334818151       -1.6548950341
 O          2.9694520365        1.9052200360        1.4012021877
 C          0.8345010229        1.2379052937       -0.3440380105
 C         -0.3379414744        0.5232171160        0.2803445543
 C         -0.5294485787        0.6131126987        1.6565920862
 C         -1.5621862814       -0.0678649468        2.2730415273
 C         -2.4242637867       -0.8564301784        1.5311408645
 C         -2.2407364589       -0.9532479015        0.1581322765
 C         -1.2123420810       -0.2549027746       -0.4624769931
 H         -1.0713948286       -0.3541660296       -1.5269049290
 N         -3.1069342295       -1.7563879101       -0.5995924855
 S         -4.7458082734       -1.6872128060       -0.2871381113
 O         -5.0588950271       -2.4946785325        0.8661438492
 O         -5.3856507084       -2.0796842605       -1.5232487311
 C         -5.0818410165        0.0286070973        0.0707589807
 C         -4.8064580012        0.9627472091       -0.9083128387
 C         -5.0369241153        2.3020962861       -0.6407531774
 C         -5.5350483999        2.6832926401        0.5959650342
 C         -5.8101121711        1.7333574324        1.5669479726
 C         -5.5806448297        0.3919585958        1.3048786458
 H         -5.7794333511       -0.3789379016        2.0314817363
 H         -6.1992716265        2.0322683205        2.5268861542
 H         -5.7105859142        3.7273077285        0.8022165067
 H         -4.8252367474        3.0427383642       -1.3951292615
 H         -4.4255553546        0.6330347268       -1.8614673594
 H         -2.9045338617       -1.7680326649       -1.5876498963
 H         -3.2230488484       -1.4109088027        1.9962717948
 H         -1.6966855897        0.0106024079        3.3410969759
 H          0.1538138075        1.2154981523        2.2385870578
 H          1.0263099698        2.1473805446        0.2411026653
 C          0.6184455782        1.6284109878       -1.7909047734
 C         -0.3261616181        2.7463868509       -2.1135066062
 C          1.1503453187        2.9412063398       -2.2790214160
 H          1.5570753493        2.9923553844       -3.2780332718
 H          1.6673540040        3.5667622111       -1.5662240163
 H         -0.9354620525        2.6677509499       -3.0008222487
 H         -0.8117079615        3.2395472719       -1.2852788988
 H          0.6701469814        0.7912079049       -2.4761718056
