  62
        -98.94461622
 C         -1.1863730791       -1.1690820417        0.1594499873
 C         -2.0547705776       -0.6927453566        1.1736561362
 C         -2.7083302211        0.5947114408        0.9136708932
 C         -2.4173197843        1.2734810705       -0.2101654580
 C         -2.9868209110        2.6077452579       -0.6103710245
 C         -4.3526780602        2.5191898314       -1.3052128877
 C         -5.5269805037        2.1680762035       -0.3908073131
 H         -5.5326760509        2.8418127444        0.4666447618
 H         -6.4412535545        2.3546034536       -0.9576526120
 C         -5.5382720975        0.7124111033        0.0966589700
 H         -4.8781081276        0.1119612386       -0.5336409180
 H         -6.5439956161        0.2998623018       -0.0100743146
 C         -5.1277153537        0.5295607310        1.5580669819
 H         -5.1349430870       -0.5395898267        1.7862087751
 H         -5.8579164728        1.0164450942        2.2083010387
 C         -3.7336917819        1.0754477150        1.8950259936
 H         -3.7520689907        2.1650211690        1.9249566668
 H         -3.4472212540        0.7049839618        2.8827539352
 H         -4.5517331989        3.4937870977       -1.7566574954
 H         -4.2877693183        1.7853593462       -2.1117920070
 H         -3.0632800647        3.2506581800        0.2671951157
 H         -2.2755868517        3.0577045242       -1.3062248394
 O         -1.5249261602        0.8169367003       -1.1264961989
 C         -0.8873654211       -0.4108206911       -0.9728382679
 O         -0.0983236838       -0.6845332901       -1.8943552548
 O         -2.2725199717       -1.3148793724        2.2482006572
 C         -0.5115943860       -2.5093712938        0.3814333331
 C          0.9661945113       -2.4074593350        0.0983919454
 C          1.6334675494       -3.2079560552       -0.8191589904
 C          2.9964933694       -3.0651998137       -1.0111930271
 C          3.7179476422       -2.1250318832       -0.3000143897
 C          3.0596563305       -1.3179618342        0.6213670070
 C          1.6967885150       -1.4674199366        0.8165062122
 H          1.1950263526       -0.8345380146        1.5348749526
 N          3.7709485979       -0.3672299975        1.3772553753
 S          3.1904255060        1.1930322633        1.5067804578
 O          4.3132256558        1.9475118913        2.0226782621
 O          1.9909353163        1.2190558164        2.3052065664
 C          2.8429118142        1.7095935276       -0.1624142565
 C          3.9041345461        1.8683220557       -1.0327057007
 C          3.6462207415        2.2394098375       -2.3413828489
 C          2.3383225905        2.4421676503       -2.7557516159
 C          1.2858993683        2.2858649184       -1.8686104477
 C          1.5389271060        1.9136336883       -0.5583418223
 H          0.7469913542        1.7734920098        0.1614831926
 H          0.2671548366        2.4276964317       -2.1913629975
 H          2.1353817854        2.7240610162       -3.7768703950
 H          4.4616843973        2.3662770595       -3.0351269088
 H          4.9078996801        1.7161097475       -0.6701922462
 H          4.7640376823       -0.3562747648        1.1922966040
 H          4.7808485898       -2.0141994998       -0.4515327029
 H          3.5023868869       -3.6907412038       -1.7306883743
 H          1.0844435160       -3.9319043485       -1.3980495118
 H         -0.6292810123       -2.6953445148        1.4630754791
 C         -1.1888916646       -3.6712670564       -0.3309889236
 C         -2.6488410046       -3.6241974885       -0.6671706375
 C         -1.6269537989       -3.5892222533       -1.7615752686
 H         -1.5146828366       -4.4660327277       -2.3824803970
 H         -1.4582665210       -2.6599255014       -2.2821667339
 H         -3.2348537038       -4.5213517437       -0.5344692576
 H         -3.1865290192       -2.7154647876       -0.4376194651
 H         -0.8087603430       -4.6301118693        0.0081474550
