  62
        -98.93061420
 C         -1.2014168021       -1.1618082835        0.7891816367
 C         -1.7100755963       -0.6906607283       -0.4452677033
 C         -2.6187487916        0.4734359339       -0.3762508366
 C         -2.8500893230        1.0714273867        0.8053815880
 C         -3.6950080657        2.2753885297        1.1679611349
 C         -4.7331776100        2.8231244100        0.1917689748
 C         -5.9161365163        1.8928515675       -0.0766688624
 H         -6.5250959075        1.8358517507        0.8292880003
 H         -6.5305423615        2.3408547869       -0.8607444321
 C         -5.5595762096        0.4639161703       -0.4802751179
 H         -5.0318110605       -0.0277747834        0.3395879459
 H         -6.4947704686       -0.0820708208       -0.6319361537
 C         -4.7311639319        0.3294627280       -1.7566319167
 H         -4.6804396282       -0.7340646832       -2.0046128570
 H         -5.2373026730        0.8404200167       -2.5779648767
 C         -3.2879404598        0.8544809178       -1.6651861706
 H         -3.2551615419        1.9300248859       -1.8191483114
 H         -2.7054702234        0.3854921884       -2.4631781485
 H         -5.1300854963        3.7370925211        0.6422639079
 H         -4.2588307171        3.1149834868       -0.7404346531
 H         -4.1924535917        2.0155607884        2.1079879128
 H         -2.9907637351        3.0801836418        1.4074809953
 O         -2.2370068117        0.6503073657        1.9524293413
 C         -1.4293173986       -0.4695193528        1.9788834315
 O         -0.9713812288       -0.7397541551        3.1095671350
 O         -1.4395050900       -1.1988030345       -1.5589713807
 C         -0.3205444067       -2.4032799141        0.8933020650
 C          0.9653243908       -2.1316856569        0.1532386329
 C          1.2322974373       -2.4359172081       -1.1757219825
 C          2.4286435478       -2.0532728848       -1.7606057051
 C          3.3787233263       -1.3447625640       -1.0495425448
 C          3.1154138320       -1.0164035821        0.2735046802
 C          1.9277661626       -1.4164749522        0.8618237162
 H          1.7254687108       -1.1448598673        1.8907555567
 N          4.0469243724       -0.2302647942        0.9897041424
 S          4.3048971393        1.2838568658        0.3111413325
 O          5.2543566407        1.1625566379       -0.7656572974
 O          4.6954360792        2.1441890463        1.4052951156
 C          2.7085201987        1.7525465781       -0.3340640320
 C          2.4799083892        1.7257641285       -1.6943821999
 C          1.2077586352        2.0081070065       -2.1648945408
 C          0.1907674686        2.3047102440       -1.2718839086
 C          0.4368891865        2.3290554915        0.0918765097
 C          1.7057098440        2.0463074042        0.5682609326
 H          1.9267699527        2.0568276824        1.6242706340
 H         -0.3571826187        2.5520882176        0.7870428697
 H         -0.8018059326        2.5125792718       -1.6373314189
 H          1.0088331096        1.9863880955       -3.2240120612
 H          3.2976082770        1.4870956339       -2.3544234970
 H          3.8010102477       -0.1247245140        1.9644176356
 H          4.3049797542       -1.0224621010       -1.4969020266
 H          2.6157539664       -2.3034176271       -2.7936840334
 H          0.4983497342       -2.9405962269       -1.7768231440
 H         -0.0521736966       -2.4522572767        1.9599935960
 C         -1.1014602283       -3.6840904478        0.6324666860
 C         -1.6075468289       -4.1684414611       -0.6915875260
 C         -0.5061216870       -4.9087398720        0.0045907068
 H         -0.7343244614       -5.8683002388        0.4445344310
 H          0.4942799094       -4.8357225888       -0.3917339853
 H         -2.5911340275       -4.6172084468       -0.7071065433
 H         -1.3960998664       -3.5834975731       -1.5703103942
 H         -1.7762199287       -3.8643555504        1.4669556297
