  62
        -98.94528500
 C          1.7276561871        0.5328831708        0.8409587671
 C          2.0744623967       -0.0156418053       -0.4195103210
 C          2.1735026576       -1.4835167220       -0.4759982125
 C          1.8784057291       -2.2117546501        0.6143808020
 C          1.9259730930       -3.7102441848        0.6928096134
 C          0.5733569428       -4.3482511932        0.3508389087
 C         -0.0469405607       -3.8398118755       -0.9507375901
 H         -0.9655894564       -4.4079117564       -1.1175098867
 H         -0.3409644789       -2.7934937918       -0.8409327551
 C          0.8593647058       -3.9618434677       -2.1830552815
 H          1.6542122839       -4.6857055482       -1.9957177562
 H          0.2628280423       -4.3404078496       -3.0158504203
 C          1.4688932596       -2.6347781710       -2.6404927874
 H          1.8586362152       -2.7678452897       -3.6537853706
 H          0.6836265573       -1.8749115958       -2.6846356274
 C          2.6150582231       -2.0941935273       -1.7755626346
 H          3.3503540943       -2.8838947079       -1.6017618229
 H          3.1003971213       -1.2889170938       -2.3351785847
 H         -0.1255120007       -4.1446590746        1.1657290396
 H          0.7123688964       -5.4294614798        0.2872551240
 H          2.6918661817       -4.0756719695        0.0111258346
 H          2.1986951303       -3.9886869742        1.7126885202
 O          1.4754079668       -1.6542969093        1.7856952792
 C          1.3799340798       -0.2775956262        1.9233507566
 O          0.9755517974        0.0939306907        3.0431478247
 H         -0.8172310384        1.1647066063        0.4017327616
 C         -0.5255883621        1.9687262963       -0.2580905061
 C          0.7083379755        2.5782297778       -0.0688700771
 C          1.0719598819        3.6178719238       -0.9126866122
 C          0.2241928828        4.0110358205       -1.9346816548
 C         -0.9808865994        3.3676024480       -2.1495071503
 C         -1.3543577329        2.3273900854       -1.3056696319
 N         -2.5632506413        1.6347984479       -1.4790999203
 S         -2.5943053999       -0.0157329381       -1.1872018973
 O         -1.3363592810       -0.6471744317       -1.5033091284
 O         -3.7459712076       -0.4872940414       -1.9289449128
 C         -2.9470309477       -0.1439608051        0.5527661102
 C         -4.0338344959        0.5457248720        1.0528222795
 C         -4.3199491764        0.4528654311        2.4051863390
 C         -3.5192472140       -0.3226988530        3.2305636352
 C         -2.4352349410       -1.0144055450        2.7128857274
 C         -2.1476887987       -0.9274655437        1.3604342027
 H         -1.3025102727       -1.4391752850        0.9252654201
 H         -1.7991493832       -1.6051432629        3.3528079041
 H         -3.7365273705       -0.3882104934        4.2849640162
 H         -5.1619093281        0.9882139699        2.8135727426
 H         -4.6295396728        1.1389164293        0.3793665274
 H         -3.0791266908        1.8790183385       -2.3120480153
 H         -1.6236739185        3.6571161260       -2.9670748563
 H          0.5182567226        4.8168861580       -2.5902322500
 H          2.0279118653        4.1003579837       -0.7914861261
 C          1.5661982532        2.0317332485        1.0452222678
 H          0.9922203647        2.1246183669        1.9826107264
 C          2.8629762342        2.7963693268        1.2583678431
 C          4.0757677648        2.1159708225        1.8181477969
 C          4.0733933427        2.5953100556        0.3990991193
 H          4.6725742564        3.4597906996        0.1520176584
 H          4.0079450540        1.8674755368       -0.3933379126
 H          4.6745720369        2.6470523308        2.5428320607
 H          4.0123428340        1.0522536174        1.9978170370
 H          2.6793004831        3.8079556184        1.6076232988
 O          2.3155293301        0.6718720241       -1.4447371108
