  62
        -98.94417719
 C         -1.6384680190       -1.4383625435        0.3737387446
 C         -1.7797016652       -0.2324057094        1.1106016311
 C         -3.0436987853        0.4958206927        0.9432902161
 C         -4.0015677064       -0.0285906984        0.1580019110
 C         -5.3326462164        0.6073749771       -0.1185031182
 C         -5.2831922445        1.4891912055       -1.3737760065
 C         -4.1059400373        2.4637919904       -1.3964238632
 H         -3.1756975076        1.8956389875       -1.4701915799
 H         -4.1933448481        3.0574915938       -2.3088730062
 C         -4.0332016618        3.3996005929       -0.1817592528
 H         -3.8225379116        4.4118769356       -0.5328042822
 H         -4.9990261524        3.4277136510        0.3239256135
 C         -2.9399131392        3.0406636313        0.8263917733
 H         -2.8169034022        3.8854642848        1.5094459238
 H         -1.9945908900        2.9000111590        0.2970028657
 C         -3.2032279158        1.7947138668        1.6822870218
 H         -4.1943866664        1.8615109533        2.1358174776
 H         -2.4615285414        1.7743193811        2.4863854114
 H         -6.2205178030        2.0445082909       -1.4419019965
 H         -5.2082622422        0.8408202434       -2.2497976664
 H         -6.0658111714       -0.1864543854       -0.2718363630
 H         -5.6308400442        1.2004872079        0.7439896483
 O         -3.8440206864       -1.1961714431       -0.5112975779
 C         -2.6580410407       -1.9161784842       -0.4504872285
 O         -2.6667538349       -2.9366832829       -1.1664890777
 O         -0.8883880988        0.2099731024        1.8831749577
 C         -0.3226604808       -2.1782733606        0.5408281961
 C          0.6563048530       -1.8397327003       -0.5586843991
 C          0.3451838401       -2.0458494481       -1.8986953496
 C          1.2660208976       -1.7390459982       -2.8835200510
 C          2.5054346586       -1.2176220306       -2.5556530934
 C          2.8289776268       -1.0137776358       -1.2192054386
 C          1.9039522770       -1.3287005134       -0.2325394350
 H          2.1721259125       -1.1768026583        0.8011674846
 N          4.0889617640       -0.5167456118       -0.8609254596
 S          4.2963805391        0.5018622027        0.4469611054
 O          5.6145627055        1.0628830926        0.2463978843
 O          4.0980210248       -0.2236202493        1.6758350959
 C          3.0660983412        1.7771739054        0.2563626027
 C          1.9496137727        1.7975933787        1.0648840379
 C          1.0001078872        2.7883405862        0.8719847102
 C          1.1790642039        3.7344240302       -0.1240394805
 C          2.3104171545        3.7040299880       -0.9268520167
 C          3.2630385865        2.7172666351       -0.7377096842
 H          4.1623107579        2.6706936818       -1.3303218657
 H          2.4497363794        4.4452011577       -1.6974350088
 H          0.4348911405        4.5014609095       -0.2726730339
 H          0.1228012094        2.7925642493        1.4986346113
 H          1.8191604133        1.0492760981        1.8291163833
 H          4.6782760936       -0.2531565367       -1.6364763186
 H          3.2214807552       -0.9783192322       -3.3269057490
 H          1.0143201674       -1.9042099096       -3.9202933701
 H         -0.6217316192       -2.4490594329       -2.1579914503
 H          0.1006072959       -1.8026483403        1.4828909108
 C         -0.4731175881       -3.6827910094        0.6580987253
 C          0.6159773833       -4.4683674070        1.3221642197
 C         -0.7071520322       -4.2947067758        2.0048619354
 H         -1.3691717291       -5.1445891710        2.0759416622
 H         -0.7584482790       -3.6298869840        2.8551029288
 H          0.8655914763       -5.4399962787        0.9243582122
 H          1.4634885260       -3.9223896207        1.7098410495
 H         -0.9763272903       -4.1332253356       -0.1872745236
