  62
        -98.94310381
 C          1.4717477337        1.0849760661       -0.0108364300
 C          2.5165770350        0.6396202788        0.8288050438
 C          3.0558878216       -0.7004132815        0.5480810315
 C          2.5287244782       -1.4259831228       -0.4534370669
 C          2.8819462276       -2.8279373110       -0.8844330958
 C          4.3678371042       -3.2089890373       -0.9256728143
 C          5.3183478450       -2.0687392665       -1.3195128305
 H          5.9670123000       -2.4110470317       -2.1278204583
 H          4.7458556188       -1.2197491957       -1.6967061107
 C          6.2099858420       -1.6090152395       -0.1637876804
 H          6.5765792405       -2.4898511329        0.3676833994
 H          7.0787948372       -1.0896474586       -0.5750587336
 C          5.5480678417       -0.6618154362        0.8360103963
 H          6.2448057349       -0.5037450520        1.6627120031
 H          5.3791032802        0.3118650970        0.3683540754
 C          4.2043468268       -1.1396648675        1.4108315379
 H          4.2005369834       -2.2157305346        1.5682410345
 H          4.0579359689       -0.6486869521        2.3771501879
 H          4.6691316659       -3.6055904816        0.0428466128
 H          4.4623042839       -4.0266928956       -1.6422882560
 H          2.3471284535       -3.5223052895       -0.2289507944
 H          2.4488145041       -2.9348538898       -1.8821177656
 O          1.5165741950       -0.9591991226       -1.2364050207
 C          0.9534093492        0.2862243710       -1.0276997293
 O          0.0223494302        0.5692152489       -1.8073014866
 O          2.9711349153        1.3274817542        1.7842072852
 C          0.8493666722        2.4463119791        0.2340322432
 C         -0.6367444414        2.3133367851        0.4593659353
 C         -1.5629021070        3.2306096875       -0.0227638934
 C         -2.9164683351        3.0506838280        0.2049490583
 C         -3.3770742517        1.9441874807        0.8946887784
 C         -2.4579233519        1.0260119946        1.3877405808
 C         -1.1023374859        1.2299459378        1.1935582509
 H         -0.4047292147        0.5041923774        1.5861265646
 N         -2.8694401798       -0.1417130699        2.0685331005
 S         -2.5759425972       -1.5850259559        1.2622732774
 O         -3.1754933707       -2.6087337445        2.0925585526
 O         -1.1674470222       -1.7236766767        0.9980482212
 C         -3.5155307684       -1.4215512130       -0.2455743349
 C         -2.9918032235       -0.7030311625       -1.3014967182
 C         -3.7820809937       -0.5031560254       -2.4240674829
 C         -5.0685549146       -1.0166630135       -2.4713729078
 C         -5.5774477414       -1.7385119955       -1.4018036574
 C         -4.7975000615       -1.9380291764       -0.2748952460
 H         -5.1480076883       -2.4930051947        0.5804849047
 H         -6.5769058552       -2.1408604391       -1.4410310104
 H         -5.6764943618       -0.8535836868       -3.3473051062
 H         -3.3780560081        0.0585560673       -3.2509978791
 H         -1.9850633477       -0.3166516333       -1.2509379889
 H         -3.8407397770       -0.1212085942        2.3507317634
 H         -4.4340843152        1.7875900646        1.0492111361
 H         -3.6226192353        3.7718317033       -0.1769830469
 H         -1.2237313732        4.0862922321       -0.5834514997
 H          1.3091000342        2.8170671400        1.1630164038
 C          1.1998771323        3.3943897086       -0.8954471966
 C          1.3774935167        4.8596073337       -0.6337998749
 C          2.5695666751        4.0012476477       -0.9283849289
 H          3.0640393035        4.1089320605       -1.8821449721
 H          3.2377059235        3.7541113287       -0.1161596797
 H          1.0556103384        5.5608728632       -1.3888984543
 H          1.2443560168        5.2069598140        0.3795777605
 H          0.7649754318        3.0892831179       -1.8408863096
