  62
        -98.94186602
 C         -2.7727610324       -0.2052334863       -0.2267218796
 C         -2.0358530167        0.6034485203       -1.1259321324
 C         -1.9734016856        2.0363730247       -0.8035073231
 C         -2.6101885607        2.5038956169        0.2838848700
 C         -2.5876763121        3.9299375835        0.7501647731
 C         -1.4535148525        4.1778707685        1.7540347509
 C         -0.0877105028        3.6613134105        1.2998011030
 H          0.6366408298        3.9481475525        2.0659732698
 H         -0.0965420693        2.5683107401        1.2733847194
 C          0.3772338276        4.1911903934       -0.0635648647
 H          1.4306472838        4.4680728511        0.0149379581
 H         -0.1790555200        5.0930749239       -0.3233901199
 C          0.2655162448        3.1735945007       -1.2005636458
 H          0.8575395555        3.5363613542       -2.0455457345
 H          0.6950366013        2.2237177755       -0.8696883643
 C         -1.1559237500        2.9081695222       -1.7142260845
 H         -1.6638508602        3.8557094994       -1.9049687228
 H         -1.0756974253        2.3637444641       -2.6595563610
 H         -1.3914663873        5.2517626648        1.9415691522
 H         -1.7078468244        3.6828336153        2.6942598124
 H         -3.5411143817        4.1456686386        1.2358143869
 H         -2.4735675203        4.5852503737       -0.1112065335
 O         -3.3343130874        1.7060882761        1.1097542037
 C         -3.4064787264        0.3421850576        0.8938890802
 O         -4.0720337379       -0.2737719333        1.7512995100
 O         -1.4470490188        0.1777915793       -2.1573505413
 C         -2.8709931465       -1.7215514534       -0.3437087157
 C         -1.6190339819       -2.3263828873        0.2462310032
 C         -1.6611112453       -3.1285212981        1.3801710131
 C         -0.4922006435       -3.5831358287        1.9675316978
 C          0.7420932699       -3.2280053721        1.4517387018
 C          0.7898673498       -2.4325997802        0.3161251626
 C         -0.3798678817       -2.0109380068       -0.2923009045
 H         -0.3269765459       -1.3811838062       -1.1679569297
 N          2.0484881101       -1.9817003486       -0.1728520526
 S          2.5596993750       -0.6648110574        0.7712155868
 O          2.8657524985       -1.1639786822        2.0884111915
 O          1.5886346732        0.4057321013        0.7071657935
 C          4.0629666208       -0.1925469672       -0.0618891175
 C          5.1897118642       -0.9703166224        0.1246967093
 C          6.3545783421       -0.6311701779       -0.5443589261
 C          6.3724124889        0.4725118255       -1.3845923481
 C          5.2332576796        1.2428882349       -1.5614700017
 C          4.0639079171        0.9079668261       -0.8964142902
 H          3.1561678991        1.4813205271       -1.0007609941
 H          5.2491370357        2.1013065982       -2.2136092853
 H          7.2803442391        0.7354791801       -1.9040028471
 H          7.2429816879       -1.2266279787       -0.4091317130
 H          5.1288604838       -1.8129830995        0.7929743228
 H          1.9443027021       -1.6364326692       -1.1208601450
 H          1.6602929581       -3.5301112778        1.9280832012
 H         -0.5430460544       -4.2015662058        2.8509988499
 H         -2.6181455754       -3.3695608274        1.8201445473
 H         -3.7188506534       -2.0173680281        0.2884932358
 C         -3.1267178149       -2.2151102690       -1.7532196485
 C         -3.7175707192       -3.5781700183       -1.9461084948
 C         -4.5381116995       -2.3575396774       -2.2339075461
 H         -4.7581525517       -2.1108023348       -3.2615484538
 H         -5.3287886703       -2.0994266752       -1.5442757788
 H         -3.3738088678       -4.1745048016       -2.7771143836
 H         -3.9545159858       -4.1502012246       -1.0617789866
 H         -2.3907973796       -1.8770681284       -2.4700581577
