  62
        -98.93444551
 C          2.0401039796        1.1236185332        0.6602747861
 C          2.7762687144        0.9635885663       -0.5407426130
 C          4.0964254007        0.3245643211       -0.4011859358
 C          4.5324314731       -0.0482567347        0.8142732577
 C          5.8331553441       -0.7451351756        1.0872011428
 C          5.6620457897       -2.2702699222        1.0603383588
 C          4.9156710509       -2.7861554473       -0.1702122975
 H          4.8837497146       -3.8755747931       -0.0977961838
 H          3.8821435888       -2.4330457839       -0.1356295155
 C          5.5445183908       -2.3812542682       -1.5108370925
 H          5.5609623001       -3.2545362985       -2.1663996564
 H          6.5792640945       -2.0731945314       -1.3562500647
 C          4.7929607818       -1.2778318033       -2.2581762238
 H          3.7344940631       -1.5408998687       -2.3315392961
 H          5.1886568315       -1.2281639545       -3.2760976216
 C          4.8997080773        0.1290359527       -1.6562129910
 H          5.9490200758        0.3782291583       -1.4863429938
 H          4.4918601891        0.8339553710       -2.3863468750
 H          5.1041226493       -2.5721164174        1.9499282973
 H          6.6508894682       -2.7301136629        1.1078112191
 H          6.1833281909       -0.4451040700        2.0763918041
 H          6.5668594058       -0.4382064676        0.3444799025
 O          3.8009196468        0.1267352360        1.9447111581
 C          2.5394899383        0.6910395403        1.8919673278
 O          1.9661525544        0.7570277141        3.0001228943
 O          2.3763469127        1.3253664477       -1.6740659108
 C          0.6474477525        1.7462187500        0.6988299304
 C         -0.2987554816        0.9277188693       -0.1450409978
 C         -0.5448400712        1.1106972172       -1.5005722200
 C         -1.4071884575        0.2671187439       -2.1813945502
 C         -2.0435484296       -0.7769332021       -1.5374101573
 C         -1.8022902585       -0.9766639361       -0.1843155145
 C         -0.9451890586       -0.1256247091        0.4964768759
 H         -0.7566523853       -0.2939270433        1.5496072632
 N         -2.4509943021       -2.0297795235        0.4859365633
 S         -4.1053652084       -2.1674630781        0.2593194530
 O         -4.6021389977       -2.8087005716        1.4564286181
 O         -4.3680990251       -2.8562635949       -0.9795052419
 C         -4.6902037160       -0.4851191136        0.1544353016
 C         -4.5243922452        0.3270707889        1.2590147729
 C         -4.9199471888        1.6522398599        1.1825475328
 C         -5.4710961879        2.1407228370        0.0075760107
 C         -5.6370749300        1.3111220365       -1.0902584019
 C         -5.2408570576       -0.0150668887       -1.0201046418
 H         -5.3482770776       -0.6929196225       -1.8510541384
 H         -6.0680438109        1.6934185738       -2.0014468675
 H         -5.7726322087        3.1746300763       -0.0506532761
 H         -4.7921205321        2.2988653618        2.0358120579
 H         -4.0978642174       -0.0855975709        2.1594554562
 H         -2.2121464882       -2.0993292623        1.4642647857
 H         -2.7093906367       -1.4459387232       -2.0580553840
 H         -1.5795840322        0.4252919174       -3.2350892754
 H         -0.0369137602        1.8860790062       -2.0442213156
 H          0.3250568805        1.6019681593        1.7413740041
 C          0.6922990277        3.2587785782        0.5170914951
 C          1.0097247748        3.9914157931       -0.7503303395
 C         -0.3758490622        4.0453506019       -0.1816679241
 H         -0.7053854584        4.9688013901        0.2707098652
 H         -1.1571843013        3.4966546573       -0.6834034827
 H          1.6303473514        4.8728645592       -0.6668848755
 H          1.2071072963        3.4192755881       -1.6408814253
 H          1.1031204990        3.7124020687        1.4164757563
