  62
        -98.93705124
 C         -2.5559072685       -0.2629001525        0.1680539883
 C         -2.7243912778        0.9025379515        0.9590391238
 C         -2.4564894594        2.1825818337        0.2946761243
 C         -2.0832301812        2.1964325968       -0.9974737066
 C         -1.7724834396        3.4190789443       -1.8176120040
 C         -0.3294505989        3.9182448291       -1.6587150887
 C         -0.0205155189        4.5906866472       -0.3199825903
 H          0.9454884399        5.0889067169       -0.4234184320
 H         -0.7632360469        5.3653052908       -0.1274028961
 C          0.0418666915        3.6280221715        0.8746331582
 H          0.1463735814        2.6024399139        0.5115824575
 H          0.9276676306        3.8463482022        1.4751399869
 C         -1.1670857316        3.7022302400        1.8081559319
 H         -1.2082441047        4.6876791535        2.2768987700
 H         -1.0368096135        2.9589710014        2.5990046118
 C         -2.5135201601        3.4307408304        1.1229517333
 H         -2.8035752951        4.2826697286        0.5086808120
 H         -3.2694237718        3.2830944725        1.8979670788
 H         -0.1453602838        4.6413200004       -2.4566574416
 H          0.3464183625        3.0734476555       -1.8138836614
 H         -1.9279209851        3.1408970317       -2.8622692568
 H         -2.4679305103        4.2192548696       -1.5633700755
 O         -1.9472887314        1.0590989473       -1.7290797965
 C         -2.1329680414       -0.1966191518       -1.1615454080
 O         -1.8937872157       -1.1363380250       -1.9416003428
 O         -3.0631060340        0.8720455661        2.1722205045
 C         -2.6964257599       -1.6070471634        0.8631787938
 C         -1.4433705855       -2.4100954433        0.6134190083
 C         -1.4230605842       -3.6667525479        0.0259097943
 C         -0.2187917833       -4.3055474189       -0.2221707988
 C          0.9833153122       -3.7096363529        0.1086391681
 C          0.9726384369       -2.4534643689        0.7012197692
 C         -0.2319266443       -1.8215134534        0.9583705618
 H         -0.2367043941       -0.8377038213        1.4136290247
 N          2.1958069171       -1.8403725756        1.0301449341
 S          3.3081598179       -1.6628675481       -0.2341902584
 O          2.6420672382       -1.8289351043       -1.5031328600
 O          4.4137035526       -2.5564687415        0.0172344867
 C          3.8385194797        0.0271807630       -0.0319101715
 C          3.0079080818        1.0245465267       -0.5080645040
 C          3.3846421612        2.3472748406       -0.3411548380
 C          4.5773770664        2.6479781338        0.3004722718
 C          5.3991734020        1.6365634251        0.7740145394
 C          5.0287443609        0.3108114063        0.6089327522
 H          5.6358644644       -0.5098578434        0.9540432464
 H          6.3259553161        1.8755592436        1.2699629426
 H          4.8666253770        3.6789473372        0.4286615188
 H          2.7468687861        3.1347069709       -0.7093034515
 H          2.0922068986        0.7430364114       -1.0071438231
 H          2.0685056627       -0.9657379335        1.5204375314
 H          1.9313732989       -4.1807995662       -0.1012832779
 H         -0.2180875054       -5.2778022868       -0.6917934019
 H         -2.3476733840       -4.1355461250       -0.2685935565
 H         -2.7240025240       -1.3508517338        1.9361806607
 C         -3.9832573247       -2.3619295620        0.5751160372
 C         -5.2296978230       -1.6318143431        0.1749040267
 C         -4.5385432304       -2.5278192817       -0.8064721451
 H         -5.0078444011       -3.4682191040       -1.0570633442
 H         -3.9933535004       -2.0816184944       -1.6225486810
 H         -6.1713684088       -1.9527613844        0.5942974375
 H         -5.1567697948       -0.5638190909        0.0283151360
 H         -4.1167272234       -3.1997286924        1.2530091380
