  62
        -98.93908966
 C         -2.3578477808       -1.1815896167       -0.0813611516
 C         -3.4526556454       -0.8678052841        0.7587466165
 C         -4.3962874433        0.1607763519        0.2810754961
 C         -4.1590727364        0.7528651496       -0.9042599066
 C         -4.9448291611        1.8483539168       -1.5750118990
 C         -4.7016928980        3.2267516250       -0.9405628963
 C         -4.7214185009        3.2432915366        0.5855221778
 H         -3.9572731656        2.5597373597        0.9603275980
 H         -4.4413536334        4.2492519821        0.9092317045
 C         -6.0669002094        2.9042025691        1.2228968413
 H         -5.9611181053        3.0553625028        2.3001446019
 H         -6.8211823507        3.6068160505        0.8619397108
 C         -6.5772104839        1.4797739537        0.9928437376
 H         -7.0089257730        1.3709774478        0.0015442441
 H         -7.3890191445        1.3065473498        1.7052076416
 C         -5.5421318673        0.3866738998        1.2380853351
 H         -5.0882178157        0.5364214658        2.2242476407
 H         -6.0613469811       -0.5769811728        1.3045820861
 H         -3.7190919029        3.5791557437       -1.2646556973
 H         -5.4521033150        3.9198257082       -1.3248220509
 H         -4.6106941203        1.8809837791       -2.6144740424
 H         -6.0028772742        1.6038311639       -1.5748038905
 O         -3.0806425260        0.4299148727       -1.6742519474
 C         -2.1604739817       -0.5311767789       -1.2985004897
 O         -1.2453286076       -0.7096865075       -2.1267304034
 O         -3.6418038980       -1.4252816301        1.8731757130
 C         -1.3688123708       -2.2336745284        0.3933472076
 C         -0.0616534014       -1.5467736175        0.7003384030
 C          0.0981224318       -0.9044051519        1.9253490809
 C          1.2570961002       -0.2080514970        2.2109722429
 C          2.2773962374       -0.1279889999        1.2785636355
 C          2.1196992574       -0.7493137098        0.0477189406
 C          0.9640176449       -1.4686783264       -0.2282584693
 H          0.8507145814       -1.9356838607       -1.1936665996
 N          3.1436055685       -0.6660988629       -0.9114854317
 S          3.8433052838        0.8316320831       -1.2008068663
 O          2.9273911943        1.9181099160       -0.9394091552
 O          4.3764621875        0.7474627390       -2.5433315593
 C          5.2006524321        0.8853170214       -0.0471199838
 C          6.0689870683       -0.1882988247       -0.0104302667
 C          7.1352980337       -0.1566547185        0.8738894534
 C          7.3170509269        0.9428382369        1.6996352650
 C          6.4391707089        2.0145742681        1.6480480158
 C          5.3695344384        1.9885498035        0.7664153344
 H          4.6571323755        2.7953189962        0.6967819491
 H          6.5815340689        2.8688848812        2.2902485510
 H          8.1473857925        0.9645620599        2.3876412834
 H          7.8195883302       -0.9886073207        0.9171952591
 H          5.8935299569       -1.0224144660       -0.6689112477
 H          2.9107797815       -1.1215628902       -1.7826264549
 H          3.1785576654        0.4243648714        1.4890552484
 H          1.3686348980        0.2810937715        3.1667338857
 H         -0.7072751338       -0.9482470501        2.6452580545
 H         -1.7838082702       -2.6159501067        1.3355649734
 C         -1.2453240989       -3.3817499151       -0.5860332921
 C         -0.5947213030       -4.6565451823       -0.1414387200
 C         -2.0736025938       -4.6126657033       -0.3781844915
 H         -2.4736578595       -5.1153810404       -1.2460031836
 H         -2.7303536188       -4.6334062772        0.4790170068
 H          0.0230956579       -5.1934622295       -0.8448393087
 H         -0.2459304920       -4.7055686796        0.8788562813
 H         -1.0895284117       -3.0606173998       -1.6088787405
