  62
        -98.93936709
 C         -2.6739359054       -1.2363663051       -0.2001724470
 C         -2.6530563673       -0.0432226984       -0.9618335532
 C         -3.9306723684        0.6784564503       -1.0525925990
 C         -5.0186137699        0.1751122246       -0.4416724501
 C         -6.3645715441        0.8378074839       -0.4042052866
 C         -6.5025302957        1.7433969739        0.8278457667
 C         -5.3236697821        2.6952962489        1.0315794847
 H         -5.5448170314        3.3023957221        1.9122129130
 H         -4.4284400765        2.1124123259        1.2610882416
 C         -5.0356972616        3.6144183462       -0.1636981980
 H         -5.9066123063        3.6535604043       -0.8190302544
 H         -4.8631917178        4.6268448551        0.2074404408
 C         -3.8031614597        3.2242199548       -0.9816021404
 H         -3.5680661312        4.0510274246       -1.6571200658
 H         -2.9465642212        3.0928180418       -0.3152104917
 C         -3.9447233347        1.9595618066       -1.8379391461
 H         -3.0780057704        1.9113155298       -2.5035529080
 H         -4.8461164299        2.0279274116       -2.4502019574
 H         -7.4247084722        2.3192936477        0.7313034157
 H         -6.5881065161        1.1108998042        1.7145274327
 H         -7.1296605453        0.0608983984       -0.3603521542
 H         -6.5028690527        1.4197501903       -1.3132492356
 O         -5.0030506093       -0.9853485716        0.2634649262
 C         -3.8322799081       -1.7089975019        0.4164151803
 O         -3.9495523841       -2.7388313852        1.1115196024
 O         -1.6254273225        0.3981653716       -1.5387980695
 C         -1.3981202181       -2.0392201757       -0.0123027504
 C         -0.3721136811       -1.1754605366        0.6809993179
 C         -0.6815457724       -0.6607974626        1.9376209731
 C          0.2132539030        0.1484081951        2.6099723027
 C          1.4343900585        0.4711465094        2.0428296895
 C          1.7554580308       -0.0401429917        0.7934816809
 C          0.8585312917       -0.8673441147        0.1260754357
 H          1.1216086373       -1.2548161785       -0.8458983817
 N          2.9814851745        0.3028857465        0.1860992965
 S          4.4074831144        0.0372920575        1.0498421150
 O          4.5710229327       -1.3745509353        1.3262469865
 O          4.4293957858        0.9095831410        2.1957045547
 C          5.6101108888        0.5781430407       -0.1477319346
 C          5.7566881754        1.9361491158       -0.3570820156
 C          6.6700448297        2.3725970282       -1.3030632629
 C          7.4166506564        1.4491597130       -2.0202003480
 C          7.2585220753        0.0896665038       -1.7983485916
 C          6.3454267233       -0.3537585242       -0.8541939953
 H          6.1940385071       -1.4004811550       -0.6441834330
 H          7.8417018947       -0.6253300904       -2.3561076496
 H          8.1275539063        1.7917359565       -2.7554851690
 H          6.7970157650        3.4287754644       -1.4780978039
 H          5.1602041798        2.6168019817        0.2274644345
 H          3.0689728114       -0.1261983069       -0.7263768568
 H          2.1403403338        1.1006999540        2.5587432313
 H         -0.0419395197        0.5388425077        3.5840713683
 H         -1.6393361450       -0.9053264475        2.3782712726
 H         -1.6561693546       -2.8666430429        0.6641626222
 C         -0.9339021983       -2.6169070230       -1.3322662111
 C         -0.0451497026       -3.8233653279       -1.3495854350
 C         -1.4775671769       -3.9407768674       -1.7741986745
 H         -1.6954641346       -4.0847378785       -2.8217744595
 H         -2.1709374958       -4.4387554965       -1.1120833328
 H          0.7199848111       -3.8919306590       -2.1082272610
 H          0.2396502871       -4.2474495696       -0.3983184531
 H         -0.7873825278       -1.8595718326       -2.0935643606
