  62
        -98.93270104
 C          2.4341875845       -0.8801591739       -0.7889261590
 C          3.1770386564       -0.4538084312        0.3376350172
 C          3.8966226696        0.8254050608        0.1967356013
 C          3.7930188895        1.5218662553       -0.9477640910
 C          4.4677929806        2.8164810865       -1.3272508066
 C          4.5384507109        3.9196467196       -0.2628912538
 C          3.3375922855        3.9770500712        0.6925542824
 H          2.5328219649        3.3394681653        0.3223486671
 H          2.9561210495        4.9993468469        0.7220795832
 C          3.6929572075        3.5672417568        2.1237611004
 H          2.9362148559        3.9681026077        2.8023584763
 H          4.6478498543        4.0243865122        2.3923375645
 C          3.7717202922        2.0617177371        2.3740015619
 H          2.7705088817        1.6238655697        2.3282362858
 H          4.1397716065        1.9086624720        3.3913613907
 C          4.6686060521        1.2759180016        1.4034607853
 H          4.9923095378        0.3634787056        1.9114458335
 H          5.5493104046        1.8504315473        1.1270445525
 H          4.6243077288        4.8672325478       -0.7974124205
 H          5.4509098517        3.8057396247        0.3205224349
 H          5.4808173552        2.5829745033       -1.6677501685
 H          3.9135600394        3.1809147550       -2.1955836529
 O          3.0296086644        1.0915158280       -1.9932246948
 C          2.3316455744       -0.1007221855       -1.9399557522
 O          1.6604419542       -0.3495564418       -2.9636223534
 H         -0.3959613100       -0.5552911704       -0.9588067662
 C         -0.4690839833       -1.1414308624       -0.0501530734
 C          0.5281047127       -2.0700271871        0.2271947327
 C          0.4275948155       -2.8253710350        1.3865071851
 C         -0.6395084341       -2.6391456053        2.2496550091
 C         -1.6241425335       -1.7084858021        1.9758695971
 C         -1.5386830696       -0.9541028420        0.8116252427
 N         -2.5341001631        0.0041534940        0.5211384083
 S         -4.1324373438       -0.5500581221        0.5793099878
 O         -4.5294218058       -0.6528523657        1.9604831240
 O         -4.2673710871       -1.7562221372       -0.2079908962
 C         -4.9994786913        0.7982384721       -0.1976429921
 C         -5.3549991369        1.8913903823        0.5692167480
 C         -6.0170749836        2.9470449361       -0.0370229881
 C         -6.3099438879        2.8927288316       -1.3916913966
 C         -5.9466401634        1.7886885894       -2.1481801372
 C         -5.2833994541        0.7297518728       -1.5483117443
 H         -4.9920411538       -0.1525135563       -2.0959060507
 H         -6.1773782989        1.7480313407       -3.2005927837
 H         -6.8275694531        3.7143467802       -1.8609933502
 H         -6.3037087472        3.8062071805        0.5476608524
 H         -5.1162540753        1.8845789546        1.6198003933
 H         -2.3631900679        0.4475796257       -0.3723211870
 H         -2.4621607635       -1.5643436327        2.6380777878
 H         -0.7047660161       -3.2288186534        3.1517396536
 H          1.1866755258       -3.5529571166        1.6205795486
 C          1.6636946959       -2.1898959279       -0.7611907568
 H          1.2221201799       -2.2988181637       -1.7623214374
 C          2.5836877950       -3.3639716882       -0.5075343556
 C          2.1505511667       -4.7421035800       -0.9047164584
 C          3.2303370222       -4.0445236138       -1.6747974129
 H          4.2469086368       -4.3924609599       -1.5696699713
 H          2.9969805920       -3.6717105530       -2.6617747673
 H          1.1812331958       -4.8455282737       -1.3690594969
 H          2.4260392159       -5.5725871404       -0.2727639046
 H          3.1746710512       -3.2523899925        0.3930978287
 O          3.2556627170       -1.1083588523        1.4085291121
