  62
        -98.94294872
 C          2.6712907149        1.1836827636        0.1290255013
 C          2.7325677855        0.1825634903       -0.8697214075
 C          3.9616421025       -0.6238947172       -0.8888235796
 C          4.9387862351       -0.3592265811       -0.0023185174
 C          6.2177969468       -1.1345752783        0.1216108306
 C          6.0756996954       -2.2821266198        1.1313546381
 C          4.8345327977       -3.1473376445        0.9123680212
 H          4.8558149254       -3.9415449843        1.6617889877
 H          3.9423196638       -2.5472920599        1.1057604882
 C          4.7320498123       -3.7678752843       -0.4879392005
 H          5.7076210902       -3.7462327834       -0.9749968191
 H          4.4440796698       -4.8162392985       -0.3856912687
 C          3.6956782911       -3.1084297335       -1.3999334532
 H          3.5501304062       -3.7533186555       -2.2706301393
 H          2.7373162884       -3.0412497216       -0.8786306582
 C          4.0581040201       -1.7119489506       -1.9208820964
 H          5.0535977029       -1.7325359965       -2.3689851230
 H          3.3352777603       -1.4500303394       -2.6990665103
 H          6.0225459530       -1.8549553093        2.1354989432
 H          6.9704273333       -2.9046976822        1.0743659988
 H          6.4946403363       -1.5275786288       -0.8546464407
 H          6.9997222451       -0.4551312395        0.4650154140
 O          4.8514376331        0.6274405634        0.9267760537
 C          3.7150667910        1.4130330079        1.0246647454
 O          3.7535993361        2.2663466739        1.9346442089
 H         -1.0036486028        2.1883555137       -1.0365692216
 C         -0.9604808550        1.4159931855       -0.2843555690
 C          0.2054792556        1.2175027511        0.4373564837
 C          0.2202070120        0.2214505654        1.4105038119
 C         -0.8925511339       -0.5652234744        1.6351785966
 C         -2.0493060622       -0.3749785057        0.8989175437
 C         -2.0819914061        0.6254716719       -0.0613322916
 N         -3.2507264886        0.8251341161       -0.8130901048
 S         -4.7252855211        0.9032151805       -0.0187332116
 O         -5.5828822615        1.6720022536       -0.8942179224
 O         -4.5743957204        1.3995922105        1.3293615855
 C         -5.2926123744       -0.7841987329        0.0098125809
 C         -5.3628669563       -1.4695292445       -1.1871950499
 C         -5.8174134807       -2.7784880658       -1.1828270272
 C         -6.1946993092       -3.3757902342        0.0107953033
 C         -6.1213082064       -2.6732745958        1.2037642781
 C         -5.6664418995       -1.3637559392        1.2063294637
 H         -5.5878092857       -0.7808652968        2.1103249785
 H         -6.4154710333       -3.1392580101        2.1305162206
 H         -6.5485451134       -4.3947057038        0.0111103720
 H         -5.8756081802       -3.3282253430       -2.1084624297
 H         -5.0634321571       -0.9699512345       -2.0933757680
 H         -3.1727292408        1.5502677200       -1.5111914901
 H         -2.9199125997       -0.9876109443        1.0669335656
 H         -0.8605309676       -1.3369134001        2.3895985388
 H          1.1227310750        0.0721026545        1.9883543516
 C          1.4398033676        2.0636513204        0.2388810111
 H          1.5800793614        2.6727026955        1.1443376806
 C          1.3612101436        2.9878586879       -0.9589537819
 C          0.7086982304        4.3315037415       -0.8378773385
 C          2.1983225479        4.2300608002       -0.9667755796
 H          2.6589961142        4.5363572604       -1.8939448163
 H          2.8043565079        4.4234093891       -0.0934893904
 H          0.1486353139        4.7130260346       -1.6787992055
 H          0.3004743959        4.6053253871        0.1235774446
 H          1.2590083732        2.4487334024       -1.8940717012
 O          1.8118558605       -0.0265144561       -1.7018328467
