  62
        -98.94182445
 C         -2.3790344303       -1.0730957240        0.1370153234
 C         -3.6336014135       -0.9288297338        0.7872645046
 C         -4.6066755016       -0.0446405665        0.1382751284
 C         -4.2750005516        0.5860650964       -1.0023272457
 C         -5.1634929966        1.5021994477       -1.7993954997
 C         -5.1825199308        2.9510308191       -1.2932568021
 C         -5.9386363948        3.1724288894        0.0174201849
 H         -6.0598743469        4.2507052678        0.1384308395
 H         -6.9363407938        2.7397284460       -0.0627399270
 C         -5.2302229153        2.6130027615        1.2591163112
 H         -4.1798521923        2.4240010097        1.0246130332
 H         -5.2496631131        3.3593402117        2.0564875795
 C         -5.8509667092        1.3338468216        1.8207820402
 H         -5.2492270144        1.0061514710        2.6722118334
 H         -6.8597932962        1.5444940379        2.1824200059
 C         -5.9242068745        0.1742596786        0.8188660190
 H         -6.7053921410        0.3618722797        0.0824951159
 H         -6.1708809429       -0.7376723460        1.3680412427
 H         -4.1515312441        3.2957052608       -1.1829026776
 H         -5.6545941373        3.5598513859       -2.0679175529
 H         -4.7758138679        1.4997773970       -2.8205201396
 H         -6.1796027811        1.1065901192       -1.8122939521
 O         -3.0582698758        0.4383584189       -1.5873293765
 C         -2.0738078290       -0.3737628115       -1.0323863783
 O         -1.0129255836       -0.3778272780       -1.6851593334
 O         -3.9273293938       -1.5170286002        1.8612245566
 C         -1.3546702931       -1.9712767602        0.8101962873
 C         -0.0507720866       -1.2335202731        0.9681931957
 C          0.0897977296       -0.3063970318        1.9965885397
 C          1.2575662914        0.4193465398        2.1367208943
 C          2.3045828289        0.2441172351        1.2484982020
 C          2.1647455817       -0.6617465633        0.2062293531
 C          1.0006810488       -1.4094475567        0.0836873556
 H          0.8970758786       -2.1024660266       -0.7366428838
 N          3.2145252204       -0.8418698900       -0.7086087669
 S          4.0450876850        0.4979862691       -1.2811032898
 O          3.2294234500        1.6898117204       -1.2899031903
 O          4.5938275228        0.0816730102       -2.5537585062
 C          5.3818092101        0.6820303294       -0.1160785257
 C          6.1806502516       -0.4157837113        0.1379995303
 C          7.2299833591       -0.2876705234        1.0337435672
 C          7.4643717755        0.9300225427        1.6550165764
 C          6.6564304210        2.0240681789        1.3865383383
 C          5.6043307191        1.9018538985        0.4919918104
 H          4.9474174640        2.7242404480        0.2560213651
 H          6.8400896975        2.9704274065        1.8695098674
 H          8.2815439633        1.0272326131        2.3522045083
 H          7.8605146987       -1.1362976977        1.2448526931
 H          5.9673171490       -1.3424437391       -0.3678765885
 H          2.9821543250       -1.4672193374       -1.4667643381
 H          3.2120111649        0.8178108324        1.3422482949
 H          1.3545913907        1.1320894685        2.9416424381
 H         -0.7343180397       -0.1547417971        2.6801831623
 H         -1.7711440472       -2.1464522455        1.8153519387
 C         -1.1880162169       -3.3416126846        0.1703471332
 C         -2.3798283567       -4.0839486901       -0.3539026429
 C         -1.3287581262       -3.5904081290       -1.3002497442
 H         -0.6718878033       -4.3163678836       -1.7577954041
 H         -1.5595300432       -2.7521725977       -1.9387462699
 H         -2.4515396613       -5.1450008107       -0.1688308846
 H         -3.3300861298       -3.5703172793       -0.3362405085
 H         -0.4405218753       -3.9342209329        0.6894866850
