  62
        -98.93386388
 C         -2.5883709998       -0.7710346499        0.5844709800
 C         -2.8125714302       -0.1273199696       -0.6546522998
 C         -3.2478036704        1.2799164103       -0.5918923794
 C         -3.4105078602        1.8717761900        0.6062639107
 C         -3.8840346603        3.2637176999        0.9695547311
 C         -3.8879576107        4.3830506701       -0.0690209786
 C         -2.5060160708        4.8028122604       -0.5680172888
 H         -2.6416379411        5.5422685406       -1.3602374086
 H         -1.9717848208        5.2884063603        0.2524827012
 C         -1.6206975308        3.6736593406       -1.0905457592
 H         -0.6795791109        4.1157902409       -1.4282673693
 H         -1.3784279305        2.9893944805       -0.2745649394
 C         -2.1998722709        2.8709451708       -2.2544189893
 H         -2.4850920512        3.5476938010       -3.0620535791
 H         -1.4070351709        2.2173269510       -2.6286976796
 C         -3.4064516607        1.9789648806       -1.9107052692
 H         -4.3376165708        2.5396078005       -1.9403299189
 H         -3.4710705808        1.1928606907       -2.6685682494
 H         -4.3416316007        5.2522562799        0.4149937517
 H         -4.5284187308        4.1193897702       -0.9053805585
 H         -4.9046495602        3.1424461596        1.3491219513
 H         -3.2724329202        3.5703852698        1.8238527811
 O         -3.1907558699        1.2021974898        1.7768722005
 C         -2.7619316697       -0.1131498602        1.7991177302
 O         -2.5654784494       -0.5719894504        2.9436447100
 H         -0.0101416098       -0.5890834395        0.7428532995
 C          0.1750281502       -1.4010501994        0.0490369793
 C         -0.8196479598       -2.3499911794       -0.1542963007
 C         -0.5631749198       -3.3971774892       -1.0289367310
 C          0.6465827901       -3.4699668189       -1.6983161613
 C          1.6216930500       -2.5077273888       -1.5148471212
 C          1.3826976000       -1.4636519790       -0.6298952610
 N          2.3551252899       -0.4590031989       -0.4445724709
 S          3.9446315700       -0.9584574988       -0.1623228914
 O          4.5082776799       -1.4187125684       -1.4059623216
 O          3.9864243404       -1.9001326190        0.9353043184
 C          4.7031804999        0.5831093012        0.3065017788
 C          4.9536804996        1.5174112015       -0.6807354210
 C          5.5268274395        2.7279575415       -0.3259600208
 C          5.8390648597        2.9820946812        1.0016117192
 C          5.5832163101        2.0337736210        1.9803576890
 C          5.0072834902        0.8216302810        1.6327819288
 H          4.7952866204        0.0530405408        2.3588442787
 H          5.8293313902        2.2327473108        3.0109916890
 H          6.2871499896        3.9242843212        1.2750320993
 H          5.7290504292        3.4675381717       -1.0837577007
 H          4.7029579394        1.2728866617       -1.6996130710
 H          2.0736677100        0.1998005709        0.2695828193
 H          2.5643415299       -2.5549567685       -2.0350011114
 H          0.8313236101       -4.2868914087       -2.3796610715
 H         -1.3112290297       -4.1556234393       -1.1914742010
 C         -2.1137713596       -2.2115561398        0.6128108696
 H         -1.9096554194       -2.4456927400        1.6685580795
 C         -3.2119891496       -3.1285987998        0.1148607696
 C         -3.3361573293       -4.5233762400        0.6477019593
 C         -4.3340013394       -3.4781637602        1.0440902697
 H         -5.3350484894       -3.5395574903        0.6444609199
 H         -4.2882254392       -3.0780456504        2.0468507898
 H         -3.6561509793       -5.3059653599       -0.0236895508
 H         -2.6173184791       -4.8426548601        1.3873229491
 H         -3.4604740798       -2.9508062596       -0.9250981503
 O         -2.6601220903       -0.6969787993       -1.7660304600
