  62
        -98.94273217
 C         -1.3765025655       -1.5982829231        0.2481534838
 C         -1.6703751628       -0.5650797860        1.1672344761
 C         -2.7826386029        0.3348923945        0.8221139606
 C         -3.4394737605        0.1502720276       -0.3360196155
 C         -4.6374871550        0.8887723797       -0.8818407490
 C         -4.7156391550        2.4035165958       -0.6679286353
 C         -3.3760566300        3.1440319180       -0.7905160785
 H         -2.6086126363        2.4822245138       -1.1981036916
 H         -3.4898227487        3.9748049780       -1.4898097451
 C         -2.8804902616        3.7113981467        0.5407908042
 H         -3.7196051550        4.1671452511        1.0719432423
 H         -2.1509132586        4.4979834874        0.3329361426
 C         -2.1953653659        2.6925263096        1.4478802045
 H         -1.2716059831        2.3599781124        0.9652581172
 H         -1.9134208169        3.1975624551        2.3753178351
 C         -3.0370053152        1.4513415363        1.7940289893
 H         -2.7087116127        1.0801153117        2.7688989449
 H         -4.0937963035        1.6993814718        1.8581519058
 H         -5.1530037633        2.6144734388        0.3068291177
 H         -5.4129878053        2.7877305803       -1.4148089251
 H         -4.6368501251        0.6737314351       -1.9536143378
 H         -5.5356250081        0.4238900406       -0.4628450378
 O         -3.1036851108       -0.8428625292       -1.2091428177
 C         -2.0552041111       -1.7152031164       -0.9630467180
 O         -1.8415100635       -2.5309464777       -1.8805889025
 H          0.4492120004       -0.1699403595       -0.5293047238
 C          1.1382165470       -0.9403733675       -0.8346157689
 C          0.9352388541       -2.2453330120       -0.4102451483
 C          1.8200297682       -3.2249002263       -0.8450765757
 C          2.8654715734       -2.8949220463       -1.6906929198
 C          3.0642762862       -1.5905669035       -2.1067414771
 C          2.1860530498       -0.6028856339       -1.6747427036
 N          2.3294722526        0.7301370634       -2.0819273295
 S          1.8724464368        1.9943357226       -1.0893799324
 O          0.4392558669        2.0397540072       -0.9491699534
 O          2.4836997143        3.1546945706       -1.7022622381
 C          2.6717240231        1.6646397496        0.4708301332
 C          1.9685363217        1.1776107593        1.5528651879
 C          2.6554202223        0.8973468886        2.7247295604
 C          4.0229812302        1.1066772906        2.7964294297
 C          4.7153962135        1.6033625022        1.7017947371
 C          4.0360116508        1.8822986679        0.5283665720
 H          4.5332286001        2.2835569352       -0.3398158744
 H          5.7786454284        1.7715768975        1.7600608668
 H          4.5501424098        0.8847896405        3.7108772554
 H          2.1062151118        0.5125189151        3.5692797087
 H          0.9040790083        1.0158479607        1.4866689532
 H          3.1673822260        0.9375033861       -2.6036863991
 H          3.8793864638       -1.3388711453       -2.7674954379
 H          3.5406068142       -3.6664335253       -2.0283953078
 H          1.6859829120       -4.2464805687       -0.5288917903
 C         -0.2088809556       -2.5218902007        0.5373687589
 H          0.1300528965       -2.2502525203        1.5496290684
 C         -0.6436229454       -3.9724829935        0.5440905767
 C          0.0071050705       -4.9558627926        1.4694292016
 C         -1.3944902263       -4.4959849723        1.7309338758
 H         -2.2078977765       -5.1855896743        1.5627836461
 H         -1.5654329466       -3.8122581534        2.5497788177
 H          0.1554219401       -5.9677383099        1.1234720168
 H          0.7866767169       -4.5914024990        2.1212399175
 H         -0.9555578435       -4.3168882538       -0.4351172399
 O         -1.0297942577       -0.4035369344        2.2419793978
