  62
        -98.93751856
 C          1.8216048292        0.4729519596        0.2207941204
 C          2.9181644990        0.5183380090        1.1105473508
 C          4.2576616692        0.6102084295        0.5041753412
 C          4.3738868295        0.6389867806       -0.8369338488
 C          5.5929853797        0.7627614713       -1.7272814384
 C          6.9962362196        0.5406850510       -1.1685265582
 C          7.2924337096       -0.8930740593       -0.7300847792
 H          7.3328270899       -1.5274258186       -1.6191890596
 H          8.2802556195       -0.9103647996       -0.2644370089
 C          6.2802498594       -1.5118783901        0.2307653701
 H          5.3100027795       -1.5962674598       -0.2632251702
 H          6.6136958494       -2.5279849303        0.4590538594
 C          6.1002048190       -0.7736078711        1.5558550706
 H          7.0698090689       -0.6475228214        2.0414879110
 H          5.4825990289       -1.4034916916        2.2020842100
 C          5.4155624489        0.6011487689        1.4602508015
 H          5.0018226486        0.8404254581        2.4443152815
 H          6.1286465089        1.3822154392        1.2077966422
 H          7.6935480298        0.7889956116       -1.9733515878
 H          7.1934712693        1.2349279704       -0.3570689776
 H          5.4249168300        0.0693623719       -2.5574559389
 H          5.5472431898        1.7705671616       -2.1545426176
 O          3.2816363497        0.6031255211       -1.6560098191
 C          1.9904752396        0.5144612806       -1.1619685395
 O          1.1058960498        0.4802103712       -2.0371229698
 H         -2.2282859407        0.0280991094        0.1182812890
 C         -1.6441835506       -0.8696554205        0.0009608785
 C         -0.2873590707       -0.8641305606        0.2879936989
 C          0.4263458294       -2.0508418405        0.1420313282
 C         -0.1938063804       -3.1999945602       -0.3070769828
 C         -1.5471894003       -3.1995122400       -0.5951459932
 C         -2.2751423304       -2.0286485102       -0.4311010725
 N         -3.6504435503       -1.9921444301       -0.7092919928
 S         -4.6798046607       -1.2212152110        0.3634433975
 O         -4.1862156410       -1.2932754220        1.7187241475
 O         -5.9743353606       -1.8254657409        0.1271811167
 C         -4.7384154506        0.4723489894       -0.1812855413
 C         -4.7435408003        0.7455472404       -1.5348425411
 C         -4.8420061103        2.0639659807       -1.9499533101
 C         -4.9441091706        3.0802919900       -1.0118910294
 C         -4.9438593509        2.7887651590        0.3433136004
 C         -4.8398986110        1.4722461587        0.7653605594
 H         -4.8225219312        1.2022666779        1.8091440392
 H         -5.0225723512        3.5797059785        1.0723696510
 H         -5.0224348506        4.1053134103       -1.3385465786
 H         -4.8391164500        2.2949088015       -3.0030935299
 H         -4.6611216801       -0.0672607390       -2.2367975317
 H         -4.0399316902       -2.8692931799       -1.0236877236
 H         -2.0350378001       -4.0977520798       -0.9425496140
 H          0.3787089497       -4.1077390300       -0.4261954434
 H          1.4816680494       -2.0594880406        0.3787179384
 C          0.4175238591        0.3748118891        0.7840024400
 H          0.5443326088        0.2764642183        1.8733630600
 C         -0.3453003109        1.6525469392        0.4980838507
 C         -1.3733238712        2.1617211584        1.4622338509
 C         -0.0568697512        2.8648073686        1.3304965117
 H         -0.0321805412        3.8293534090        0.8465059325
 H          0.6651157886        2.7565241681        2.1267705918
 H         -2.2529581511        2.6450491987        1.0645765710
 H         -1.5549204614        1.5807161978        2.3542761804
 H         -0.5189857806        1.8012654200       -0.5619512692
 O          2.7865196387        0.4852478781        2.3645695507
