  62
        -98.94012161
 C          1.1567270434        1.0328269287       -0.5124036730
 C          2.2665881649        1.3494573296        0.3097888002
 C          3.1018195728        0.2292657381        0.7718767353
 C          2.7538452946       -1.0228326343        0.4296598720
 C          3.4795197523       -2.2986887757        0.7577442515
 C          4.4465314417       -2.6832096046       -0.3750578454
 C          5.8386245675       -2.0613090296       -0.2714399520
 H          6.3790200463       -2.5278639092        0.5548464942
 H          6.3729266338       -2.3058320650       -1.1923093964
 C          5.8642413706       -0.5430569955       -0.0767946564
 H          5.1265231160       -0.0757161763       -0.7314171316
 H          6.8468884514       -0.1822244305       -0.3865719733
 C          5.6149973978       -0.1159487823        1.3774490694
 H          6.4040148462        0.5696557624        1.6935169541
 H          5.6887556341       -0.9902955974        2.0239468650
 C          4.2801781355        0.6005476506        1.6304745057
 H          3.9984138957        0.4725918102        2.6814556750
 H          4.4083105405        1.6763116517        1.4730697886
 H          3.9833719470       -2.3945508784       -1.3219322773
 H          4.5612525103       -3.7690057082       -0.3841007622
 H          2.7165951224       -3.0751971583        0.8467043307
 H          3.9988040019       -2.2122436191        1.7077077747
 O          1.6713198031       -1.2898820391       -0.3467921325
 C          0.8458335361       -0.2889977754       -0.8333763810
 O         -0.0936015096       -0.7205322976       -1.5294777096
 O          2.5592252841        2.5334112700        0.6346720170
 C          0.2945064047        2.2003248223       -0.9633218994
 C         -0.8513522399        2.3975494192        0.0008188549
 C         -1.0634112384        3.6188880728        0.6290488956
 C         -2.0950569450        3.7708646945        1.5387960070
 C         -2.9146863474        2.7033387998        1.8580424015
 C         -2.7089580264        1.4778879278        1.2344099176
 C         -1.7025753646        1.3412764727        0.2913376753
 H         -1.5568185690        0.3887866007       -0.1912043442
 N         -3.5078028585        0.3645306933        1.5330787239
 S         -2.8025671723       -1.1563025646        1.5768491373
 O         -3.6901411045       -1.9326319860        2.4222234393
 O         -1.4263159744       -1.0960635484        2.0158078486
 C         -2.9333270830       -1.7832411880       -0.0820503610
 C         -2.0258168609       -2.7346204285       -0.4989725079
 C         -2.1561320903       -3.2744149910       -1.7681089606
 C         -3.1862556877       -2.8541586339       -2.5933806951
 C         -4.0909853611       -1.8979650698       -2.1585625335
 C         -3.9690577042       -1.3573665563       -0.8890326537
 H         -4.6494928921       -0.6069180046       -0.5220749343
 H         -4.8880380124       -1.5688915752       -2.8060116502
 H         -3.2803403435       -3.2712318653       -3.5838633657
 H         -1.4456984969       -4.0102728788       -2.1092198083
 H         -1.2258041736       -3.0194321136        0.1662574190
 H         -4.1662719570        0.4949632991        2.2874470952
 H         -3.7018309161        2.8119247439        2.5885797072
 H         -2.2500962093        4.7243165701        2.0205610194
 H         -0.4012441358        4.4451897829        0.4167943164
 H          0.9432884136        3.0845341753       -0.8958464414
 C         -0.2171745352        2.0852841150       -2.3853124936
 C         -0.5917405179        3.3326370017       -3.1261855212
 C          0.6383429166        2.5700936403       -3.5154705368
 H          0.6332789652        2.0117376327       -4.4392560017
 H          1.6009649266        2.9933321510       -3.2672949337
 H         -1.4457542141        3.3013399645       -3.7847574629
 H         -0.4618339160        4.2760217005       -2.6179990229
 H         -0.8117276169        1.1976424511       -2.5560984487
