  62
        -98.94499105
 C          1.8850126449        0.7229952625       -0.1934503730
 C          2.4531554031        0.1322655706        0.9600359653
 C          3.5189893860       -0.8465506017        0.7191841413
 C          3.8606149430       -1.1630759451       -0.5433058294
 C          4.9080364356       -2.1632555237       -0.9516649667
 C          6.3365146416       -1.6018403004       -0.9648675683
 C          6.9517220763       -1.3542275885        0.4131205587
 H          6.8596432058       -2.2567377096        1.0182685118
 H          8.0173526712       -1.1727508276        0.2596947571
 C          6.3518329699       -0.1606475353        1.1693890664
 H          5.8056766027        0.4763039261        0.4698270954
 H          7.1570450968        0.4447545084        1.5915168158
 C          5.4214178239       -0.5422645180        2.3206849457
 H          5.0262926764        0.3768251060        2.7607984978
 H          5.9886980487       -1.0679070388        3.0920301998
 C          4.2322331467       -1.4190143888        1.9069351141
 H          4.5682635964       -2.4343817427        1.6971260839
 H          3.5231097313       -1.4497513089        2.7380077354
 H          6.3408328997       -0.6721886742       -1.5385522537
 H          6.9639268007       -2.3220401131       -1.4950941342
 H          4.6538457676       -2.4820574099       -1.9649365185
 H          4.8631408106       -3.0316914008       -0.2935815911
 O          3.2559852539       -0.6082230460       -1.6272086433
 C          2.2675216242        0.3562500668       -1.4840867873
 O          1.8169775561        0.7914305828       -2.5598673708
 O          2.0790608863        0.4018256767        2.1337379786
 C          0.7938271803        1.7643418693       -0.0229759178
 C         -0.4906906541        1.2747895281       -0.6455060541
 C         -1.2737369332        2.0424822528       -1.4966462251
 C         -2.4373335553        1.5226928234       -2.0387551178
 C         -2.8501834696        0.2385045993       -1.7379859201
 C         -2.0853420165       -0.5304240068       -0.8687669118
 C         -0.9227286878       -0.0071897850       -0.3254670329
 H         -0.3269611768       -0.6094882439        0.3493608053
 N         -2.5040132601       -1.8302246451       -0.5398746348
 S         -4.1223831660       -2.0735359327       -0.1921710826
 O         -4.1501641313       -3.2128157376        0.6983142070
 O         -4.8665273676       -2.2176335610       -1.4186972536
 C         -4.6493115222       -0.5977929033        0.6614595503
 C         -4.0045419325       -0.2583500850        1.8344649883
 C         -4.3805336366        0.8999615669        2.4946765162
 C         -5.3901520541        1.6949857390        1.9736221847
 C         -6.0316776445        1.3374783857        0.7981653660
 C         -5.6580908004        0.1810167260        0.1323170827
 H         -6.1275424414       -0.1330236681       -0.7856357811
 H         -6.8175777005        1.9563552687        0.3963331190
 H         -5.6776710966        2.5977752378        2.4889605030
 H         -3.8818476721        1.1790069023        3.4090826085
 H         -3.2259150588       -0.8991322296        2.2169585583
 H         -1.9074742087       -2.3005336193        0.1241803630
 H         -3.7419916507       -0.1864494039       -2.1691608867
 H         -3.0289618240        2.1261372837       -2.7098686607
 H         -0.9681904618        3.0447307442       -1.7468689053
 H          0.6357855536        1.8428157551        1.0631815506
 C          1.2535342212        3.1086059095       -0.5458107161
 C          0.7059782003        4.3742374061        0.0410758459
 C          2.1187138779        3.9655104021        0.3275493632
 H          2.9227737276        4.5221491326       -0.1300938737
 H          2.3548816858        3.5904942152        1.3128590607
 H          0.5410709427        5.2168195273       -0.6132532485
 H         -0.0178370088        4.2838670300        0.8365789175
 H          1.4790136128        3.0878636089       -1.6060380975
