  62
        -98.93330165
 C         -2.6119481034       -1.1681739111       -0.3136529672
 C         -2.3961213171        0.0804510958       -0.9410713947
 C         -3.3987159833        1.1321691154       -0.6823236140
 C         -4.4407701924        0.8778986942        0.1297126173
 C         -5.6188042171        1.7349361292        0.5435796624
 C         -5.6086676610        3.2441752307        0.3142563779
 C         -4.5795129701        4.0118164048        1.1434424275
 H         -4.5949803272        5.0562607346        0.8243142646
 H         -4.8852213662        3.9801087729        2.1922819734
 C         -3.1467798595        3.4898619160        1.0666815839
 H         -2.5253501420        4.1258177737        1.7030603734
 H         -3.1005947035        2.4805657932        1.4814296861
 C         -2.5264337527        3.4821058860       -0.3290783009
 H         -1.4662751388        3.2402215482       -0.2147728050
 H         -2.5973299194        4.4790003791       -0.7683416094
 C         -3.1286511855        2.4668914700       -1.3158402215
 H         -4.0279378742        2.8564567937       -1.7863047091
 H         -2.3946352699        2.2895314721       -2.1069999234
 H         -5.4872294052        3.4643513338       -0.7422356538
 H         -6.5994225131        3.6075216202        0.6006715133
 H         -6.4884927999        1.3127474387        0.0278186696
 H         -5.7682620496        1.5364680599        1.6096942536
 O         -4.6099869757       -0.3449463226        0.7126287671
 C         -3.7172751348       -1.3791667179        0.5155978118
 O         -4.0139142461       -2.4291201295        1.1202001242
 H          0.3212002503       -0.5465053043       -0.7000420475
 C          0.4892016685       -1.2237697271        0.1243006393
 C         -0.4506311703       -2.2091277304        0.3912410413
 C         -0.2327215576       -3.0616480633        1.4671869754
 C          0.8979779294       -2.9276739730        2.2539987035
 C          1.8292063946       -1.9398219845        1.9892670821
 C          1.6174479822       -1.0786691510        0.9201214182
 N          2.5361252201       -0.0433208865        0.6570307511
 S          4.1746872234       -0.4525417586        0.6426843800
 O          4.3914161498       -1.6206022622       -0.1825797166
 O          4.6305141465       -0.5557959291        2.0065592216
 C          4.8816804485        0.9923033217       -0.1221530163
 C          5.1179232282        2.1079789090        0.6582561763
 C          5.6454889934        3.2420284986        0.0618237373
 C          5.9250317319        3.2419613908       -1.2968033708
 C          5.6827615790        2.1143090738       -2.0667016462
 C          5.1541391443        0.9769564406       -1.4766724825
 H          4.9578447273        0.0753324842       -2.0346906769
 H          5.9029653418        2.1165110917       -3.1221411106
 H          6.3368217393        4.1255059221       -1.7584690155
 H          5.8371778572        4.1203394983        0.6568273406
 H          4.8933045468        2.0589464422        1.7109026224
 H          2.2892912434        0.4597036702       -0.1852958952
 H          2.7163218088       -1.8283928508        2.5916059277
 H          1.0565187423       -3.5992303290        3.0845936022
 H         -0.9623685199       -3.8270275157        1.6901882919
 C         -1.6809133597       -2.3606331915       -0.4727495091
 H         -2.2453969127       -3.2241337924       -0.0962853561
 C         -1.3058550735       -2.6303074491       -1.9175375593
 C         -0.8049563944       -3.9907319613       -2.2939863757
 C         -2.1635641970       -3.5416378370       -2.7401132289
 H         -2.3141201374       -3.3052083644       -3.7827347349
 H         -3.0280144921       -3.9804714876       -2.2630289766
 H         -0.0185202714       -4.0651215428       -3.0293727854
 H         -0.7475227189       -4.7354572523       -1.5143528658
 H         -0.8692038793       -1.7764770431       -2.4178272479
 O         -1.4215704796        0.3365206862       -1.6987934243
