  62
        -98.93896580
 C         -1.9370000807       -0.3252322202       -0.1841602398
 C         -2.9506942407       -0.7792520097        0.6927595103
 C         -4.2092100007       -0.0145277397        0.7053650299
 C         -4.3312419607        1.0669920499       -0.0868279007
 C         -5.4651073806        2.0573076998       -0.2525173812
 C         -6.8578098107        1.7498297501        0.2917578789
 C         -7.5811878806        0.6014107698       -0.4109655206
 H         -8.5149823807        0.4094837400        0.1220818595
 H         -7.8368191906        0.9205717093       -1.4245732807
 C         -6.7960196706       -0.7030148603       -0.5233179299
 H         -5.9091022506       -0.5451786506       -1.1403858899
 H         -7.4261438006       -1.4279976606       -1.0457279495
 C         -6.3723286207       -1.3277214296        0.8044937105
 H         -7.2463086907       -1.4564506193        1.4458466805
 H         -5.9682279207       -2.3199314598        0.5866078310
 C         -5.2983582207       -0.5530558393        1.5877900901
 H         -5.7392008508        0.2426390710        2.1834706297
 H         -4.8159059108       -1.2505504689        2.2786567205
 H         -6.8135543207        1.5741058106        1.3625261990
 H         -7.4549031107        2.6540191900        0.1447331384
 H         -5.5360550106        2.2505720993       -1.3276940813
 H         -5.1134099807        2.9892718801        0.2040364184
 O         -3.3147260906        1.4818435495       -0.8982991308
 C         -2.1054854906        0.8094695094       -0.9748910804
 O         -1.2934750406        1.3144523290       -1.7734192506
 O         -2.8094837407       -1.7822876693        1.4418386808
 C         -0.6225506107       -1.0858802702       -0.2231096794
 C          0.4577119493       -0.2124571999        0.3630899802
 C          0.5104052393       -0.0384122192        1.7435529201
 C          1.4728463692        0.7689658111        2.3195779998
 C          2.4052440693        1.4203191007        1.5305110795
 C          2.3562308993        1.2574435400        0.1532815496
 C          1.3935181594        0.4400002697       -0.4236361701
 H          1.3623761094        0.3338743892       -1.4963343200
 N          3.3220819094        1.8990304296       -0.6492523607
 S          4.9137790094        1.5029342297       -0.3017260404
 O          5.3541985193        2.2525042103        0.8477593092
 O          5.6493889794        1.7284402891       -1.5258266205
 C          4.8505767893       -0.2362103501        0.0915649004
 C          4.9620707693       -0.6492001594        1.4033515206
 C          4.8210145492       -1.9965318293        1.6950369113
 C          4.5663675493       -2.9010347498        0.6761744717
 C          4.4603409493       -2.4706969704       -0.6376622185
 C          4.5994390694       -1.1251076706       -0.9348641291
 H          4.5281825694       -0.7549495511       -1.9450595393
 H          4.2634492594       -3.1771147708       -1.4281072981
 H          4.4498691593       -3.9484762397        0.9060453423
 H          4.9035352992       -2.3347489288        2.7153476515
 H          5.1587756292        0.0869271410        2.1652031603
 H          3.1418613994        1.8033594991       -1.6384147607
 H          3.1685736893        2.0506226009        1.9576330692
 H          1.5001908792        0.8926128316        3.3914803597
 H         -0.2210547408       -0.5437682889        2.3586632503
 H         -0.7659309907       -1.9428003199        0.4490160510
 C         -0.3042860206       -1.6003845809       -1.6112241191
 C          0.7820636994       -2.6190411810       -1.7831223186
 C         -0.6517856806       -3.0130115111       -1.9682665084
 H         -1.0068632805       -3.2183068516       -2.9671545284
 H         -1.1187870606       -3.6200216607       -1.2068146682
 H          1.4131100994       -2.5563968014       -2.6564967886
 H          1.2921204394       -2.9541865905       -0.8928379184
 H         -0.4259442806       -0.8500935213       -2.3835829695
