  62
        -98.93907022
 C          2.2727948496        0.0175982698        0.2356867498
 C          3.2949946797        0.7288483507       -0.4402812892
 C          4.4999554097       -0.0437207988       -0.7732231402
 C          4.5691189996       -1.3521171892       -0.4725972320
 C          5.7217158397       -2.2728393388       -0.7681660631
 C          6.8439433496       -2.2207001403        0.2779190070
 C          7.7019367296       -0.9550466903        0.2504259788
 H          8.5748955395       -1.1467750911        0.8775590386
 H          8.0616018397       -0.7834318989       -0.7645302509
 C          6.9911290396        0.3038141590        0.7667167105
 H          7.6521317395        0.8404720881        1.4510780113
 H          6.1064514195        0.0142187283        1.3386443300
 C          6.5733233597        1.2886632705       -0.3252088182
 H          7.4623964497        1.6887381812       -0.8176277976
 H          6.0462700497        2.1210244899        0.1478263329
 C          5.6502689298        0.6903326020       -1.3945157091
 H          5.2394230998        1.5089549428       -1.9901001380
 H          6.2138972698        0.0278525429       -2.0506939199
 H          6.4017799495       -2.3398691817        1.2698421668
 H          7.4952983296       -3.0793650701        0.0994366659
 H          5.3132366296       -3.2855335088       -0.7850476046
 H          6.1297679997       -2.0459051875       -1.7534431928
 O          3.5514558396       -2.0109796301        0.1435544471
 C          2.4027438896       -1.3438792106        0.5299398079
 O          1.5749008495       -2.0653147214        1.1243951968
 O          3.2326415797        1.9445610112       -0.7629941775
 C          0.9767727696        0.6572395792        0.7057814005
 C         -0.0404078803        0.7934065408       -0.4023377694
 C          0.2148740698        1.5507402123       -1.5409366283
 C         -0.7558600601        1.6969821037       -2.5146095182
 C         -2.0024236302        1.1157510935       -2.3630802991
 C         -2.2648411103        0.3526135819       -1.2316784601
 C         -1.2805364703        0.1869924306       -0.2674346203
 H         -1.4962902504       -0.4197354106        0.6005396589
 N         -3.5136718203       -0.2628786183       -1.0506548811
 S         -4.1328062104       -0.3474432004        0.5185536888
 O         -3.8579112004        0.8830442286        1.2251182705
 O         -3.6612908105       -1.5595002013        1.1407905271
 C         -5.8774609104       -0.4835902699        0.1752510084
 C         -6.6528115004        0.6607676101        0.1679988300
 C         -8.0019125503        0.5545551605       -0.1313664103
 C         -8.5491295203       -0.6866777891       -0.4198879120
 C         -7.7585076904       -1.8263116091       -0.4076370335
 C         -6.4089398704       -1.7275348395       -0.1081574133
 H         -5.7574026504       -2.5854169896       -0.0774105144
 H         -8.1880355604       -2.7899684488       -0.6291245549
 H         -9.5991414403       -0.7670289287       -0.6527484822
 H         -8.6196980503        1.4380514005       -0.1378883291
 H         -6.1856660404        1.6025105497        0.4075828813
 H         -4.2080560702        0.0482294126       -1.7161780407
 H         -2.7645341401        1.2459024045       -3.1164837689
 H         -0.5448130501        2.2849713549       -3.3951377573
 H          1.1794500698        2.0212108824       -1.6519860376
 H          0.5568993395       -0.0362156318        1.4481845096
 C          1.1817067896        2.0041018683        1.3761896824
 C          0.0768496895        2.5609033571        2.2207382431
 C          1.3389994594        2.0702088062        2.8635865725
 H          2.0225188394        2.7959857057        3.2782533836
 H          1.3029642794        1.1398872455        3.4125109012
 H         -0.1047808405        3.6244682572        2.1931530445
 H         -0.8205291405        1.9679394270        2.3282696022
 H          1.7590711996        2.6969907291        0.7785671734
