  62
        -98.93902137
 C          2.3363260291        0.8059701795        0.6246146722
 C          3.4331466595        0.9811459459       -0.2548247299
 C          4.6306297116        0.1792185358        0.0422482802
 C          4.6325224676       -0.6483316291        1.1018620184
 C          5.7603140479       -1.5643241377        1.4774159574
 C          5.5974820042       -2.9436891329        0.8233629104
 C          5.3039241551       -2.8861053236       -0.6758444990
 H          5.2387301649       -3.9159630247       -1.0335932017
 H          4.3226869123       -2.4307094610       -0.8294292870
 C          6.3513458602       -2.1238035146       -1.4994666927
 H          7.2752514135       -2.0300695871       -0.9276877603
 H          6.5817817725       -2.7040695227       -2.3953887050
 C          5.9035015692       -0.7384467649       -1.9688226112
 H          6.6201273640       -0.3840030532       -2.7144334036
 H          4.9303258133       -0.8150653499       -2.4601627857
 C          5.8086162288        0.3360311971       -0.8783310002
 H          5.6749144429        1.3016816045       -1.3742021959
 H          6.7398670720        0.3674325014       -0.3095866428
 H          6.5101894771       -3.5169569080        0.9958354849
 H          4.7712388238       -3.4636220367        1.3138952823
 H          5.7586711687       -1.6837900039        2.5621391163
 H          6.7032722206       -1.1147902994        1.1724496244
 O          3.5690332111       -0.7783732078        1.9358483050
 C          2.4039034075       -0.0663468546        1.7160807188
 O          1.5095039906       -0.2857796122        2.5590952452
 O          3.4399763357        1.7606767777       -1.2439700885
 C          1.0143319118        1.5402907238        0.4668193776
 C          0.1411687374        0.8996824232       -0.5863294296
 C          0.5068521747        0.8833380829       -1.9286552787
 C         -0.3286913293        0.3162170349       -2.8730814689
 C         -1.5482638508       -0.2241009509       -2.5049271025
 C         -1.9186002709       -0.2201124850       -1.1653513124
 C         -1.0694121160        0.3321974866       -0.2165878637
 H         -1.3659079915        0.3185036329        0.8225863811
 N         -3.1397834131       -0.7784845923       -0.7549851617
 S         -3.9641984756       -0.0386942300        0.5195417999
 O         -3.8972952123        1.3987376259        0.3816071720
 O         -3.4856437606       -0.5838291208        1.7652261919
 C         -5.6245901240       -0.6107625928        0.2094602532
 C         -6.4835200786        0.1814283603       -0.5291001581
 C         -7.7633433564       -0.2813831043       -0.7915364165
 C         -8.1593434790       -1.5226698588       -0.3163594680
 C         -7.2863739885       -2.3059727359        0.4241336351
 C         -6.0054911111       -1.8489647177        0.6910079174
 H         -5.2955166832       -2.4170295168        1.2695352484
 H         -7.5988507198       -3.2687272668        0.7951871707
 H         -9.1559517039       -1.8804680326       -0.5211996150
 H         -8.4452599962        0.3263513344       -1.3641326952
 H         -6.1349553025        1.1432313620       -0.8695511004
 H         -3.7543713497       -0.9950679688       -1.5277960610
 H         -2.2057458370       -0.6523686001       -3.2463602179
 H         -0.0332572968        0.3077970966       -3.9114992815
 H          1.4533190742        1.3120912603       -2.2192751309
 H          0.4974827194        1.4277001916        1.4302911183
 C          1.1751653829        3.0227721088        0.1856610607
 C         -0.0024900860        3.9230508347        0.4022436335
 C          1.1747458298        3.9909950767        1.3276555273
 H          1.8244128655        4.8516617839        1.2734859070
 H          1.0636348509        3.5890418337        2.3247056678
 H         -0.1612978128        4.7379440365       -0.2873347274
 H         -0.9155728067        3.4733834307        0.7661426594
 H          1.8278343371        3.2355886620       -0.6503287233
