  62
        -98.93985447
 C         -2.3732174690       -1.2185187406        0.4410245102
 C         -2.5772078993       -0.5647350106       -0.7995221998
 C         -3.6442299297        0.4462844689       -0.8178875697
 C         -4.3514739498        0.7017983586        0.2968847203
 C         -5.4894267402        1.6782017481        0.4223722504
 C         -5.0462032508        3.1248032983        0.6803761905
 C         -4.4112228811        3.8332577286       -0.5169212594
 H         -5.0699862410        3.7445095184       -1.3811824994
 H         -4.3457424015        4.8933404986       -0.2640790293
 C         -3.0090012309        3.3254000292       -0.8819629294
 H         -2.5976153007        2.7592196693       -0.0424054695
 H         -2.3443775312        4.1764892895       -1.0474563394
 C         -2.9558801805        2.4568912393       -2.1391924695
 H         -1.9251467304        2.1211426798       -2.2809161095
 H         -3.2385313908        3.0548557293       -3.0082216595
 C         -3.8551089700        1.2147136890       -2.0873949696
 H         -4.9011895101        1.5018236386       -2.1907092496
 H         -3.5846053197        0.5620543891       -2.9208045397
 H         -5.9322912510        3.6883509679        0.9813725906
 H         -4.3477584708        3.1317524785        1.5207833205
 H         -6.1051657002        1.6399636179       -0.4765861796
 H         -6.0911007201        1.3463419378        1.2713555004
 O         -4.1105789696        0.0662730486        1.4755189303
 C         -3.1012271092       -0.8776992910        1.5832137302
 O         -2.9495971490       -1.3330826911        2.7352416102
 H         -0.0534090996        0.0404605602        1.0388326403
 C          0.4932571907       -0.5608855295        0.3201865202
 C         -0.0096037288       -1.8061046596       -0.0406830899
 C          0.7080574115       -2.5649570193       -0.9552826199
 C          1.8861872313       -2.0822990788       -1.4988130399
 C          2.3757804908       -0.8395331186       -1.1425864898
 C          1.6670675005       -0.0729508689       -0.2269817197
 N          2.1800107000        1.1952282512        0.1486789504
 S          3.4409347800        1.0997039716        1.2648589704
 O          3.2050579304        0.0482011115        2.2309145003
 O          3.5859352995        2.4351419217        1.8020918605
 C          4.8536063102        0.6959756023        0.2634563404
 C          5.4155849807       -0.5620764975        0.3546701003
 C          6.5058502108       -0.8669663870       -0.4450776597
 C          7.0106763004        0.0862970433       -1.3164451096
 C          6.4357192599        1.3463714031       -1.3937707595
 C          5.3455542698        1.6580738126       -0.5970623695
 H          4.8703076794        2.6246155424       -0.6205347794
 H          6.8320542996        2.0847417933       -2.0720190895
 H          7.8581639105       -0.1540909563       -1.9388241397
 H          6.9541235912       -1.8456615168       -0.3865247098
 H          4.9853293010       -1.2705516777        1.0439465002
 H          1.4678933197        1.8020634909        0.5322392905
 H          3.2830481307       -0.4516361382       -1.5759479197
 H          2.4265454916       -2.6808212885       -2.2159795099
 H          0.3345766019       -3.5283649494       -1.2604881100
 C         -1.2886227786       -2.2669330102        0.6161958901
 H         -1.1028410486       -2.3042261502        1.7034752201
 C         -1.7089026280       -3.6698533404        0.2014168200
 C         -3.1527083779       -4.0718746109        0.1745907799
 C         -2.3872845279       -3.9432461405       -1.1062049401
 H         -2.1287100376       -4.8465491904       -1.6390635801
 H         -2.5898003883       -3.0991949105       -1.7458887600
 H         -3.8889563682       -3.3174598313        0.4121129300
 H         -3.4138838775       -5.0593373511        0.5247016498
 H         -1.0123154277       -4.4222441101        0.5583165799
 O         -1.9150206292       -0.8022696903       -1.8411359998
