  62
        -98.94124795
 C         -1.8569292282       -0.6021535982        0.0094106617
 C         -2.5709445585       -0.0911705556        1.1229978094
 C         -3.6656797537        0.8405566868        0.8225518003
 C         -3.8825983755        1.2069163270       -0.4535081295
 C         -4.9949406940        2.1043983065       -0.9106854725
 C         -6.2458270672        1.2938608069       -1.2782834059
 C         -6.6566468675        0.2744888245       -0.2155998937
 H         -7.5665011064       -0.2149916191       -0.5695084044
 H         -5.8855229159       -0.4960371988       -0.1438292166
 C         -6.9060487897        0.8727785942        1.1759939858
 H         -7.8272982071        0.4476623157        1.5798164843
 H         -7.0553710057        1.9500693694        1.0945450701
 C         -5.8010671563        0.5904416012        2.1956837507
 H         -5.5847567877       -0.4808462040        2.2140826025
 H         -6.1739675728        0.8651755952        3.1859454430
 C         -4.4836884587        1.3452929035        1.9777309987
 H         -4.6849546307        2.4132505706        1.8705606277
 H         -3.8655522537        1.1998014348        2.8686671779
 H         -7.0680481921        1.9897248227       -1.4547006556
 H         -6.0490955780        0.7574483673       -2.2094823259
 H         -5.2291816397        2.8159096623       -0.1210257421
 H         -4.6551548066        2.6520355930       -1.7914692466
 O         -3.1262863452        0.7610267842       -1.4871544939
 C         -2.1002549324       -0.1573827597       -1.2914138579
 O         -1.5021770160       -0.4714010724       -2.3359129145
 H          0.5406043629        0.6990525160        0.5793786206
 C          1.0483776581        0.0676460737       -0.1399382449
 C          0.5161682509       -1.1828207975       -0.4335925654
 C          1.1764324912       -1.9826227825       -1.3557817391
 C          2.3243790890       -1.5280615968       -1.9823418418
 C          2.8406217192       -0.2774881561       -1.7008327094
 C          2.1929467495        0.5275068798       -0.7714042514
 N          2.7149731194        1.7969444630       -0.4701104609
 S          4.3648295628        1.9309795227       -0.2268701082
 O          4.5260803854        3.0718013563        0.6474399129
 O          5.0400115828        2.0133940517       -1.4979496592
 C          4.8347922745        0.4271406386        0.6107444296
 C          5.7150571577       -0.4511082686        0.0126462814
 C          6.0334490422       -1.6304845767        0.6670032969
 C          5.4657525938       -1.9110401290        1.8998799345
 C          4.5860444562       -1.0162706116        2.4901412567
 C          4.2654493159        0.1647547092        1.8412091264
 H          3.5891159633        0.8835811530        2.2757604874
 H          4.1457832872       -1.2354564472        3.4497019171
 H          5.7098897929       -2.8315586896        2.4061267516
 H          6.7186089290       -2.3271609562        0.2116646112
 H          6.1312611181       -0.1945023808       -0.9478109199
 H          2.1961352194        2.2999325622        0.2340041492
 H          3.7214636219        0.0971071616       -2.1964763874
 H          2.8203726798       -2.1551163646       -2.7072777629
 H          0.7780585293       -2.9515263923       -1.6066430146
 C         -0.7423248064       -1.5948504276        0.2876300453
 H         -0.5564612370       -1.4921396149        1.3702300346
 C         -1.1271584506       -3.0482953711        0.0559719843
 C         -2.5516823059       -3.4972931004        0.1802311374
 C         -1.8798061872       -3.4992625730       -1.1584841026
 H         -1.6197060474       -4.4514366987       -1.5975029369
 H         -2.1614558184       -2.7491246231       -1.8803881816
 H         -3.2994559607       -2.7421057626        0.3754331988
 H         -2.7528330767       -4.4435788976        0.6596261172
 H         -0.3765012880       -3.7305480322        0.4426492006
 O         -2.2992295176       -0.3965376265        2.3153847079
