  62
        -98.94438281
 C         -2.2001696353       -1.2623375926        0.2407128366
 C         -2.2639405692       -0.5142938753       -0.9599717942
 C         -3.0491161120        0.7263665722       -0.9004954777
 C         -3.6665097320        1.0831075017        0.2395484470
 C         -4.4997749232        2.3177313934        0.4511063744
 C         -3.6785714874        3.5695049462        0.7906755277
 C         -2.8862912175        4.1644327987       -0.3745361067
 H         -3.5528727184        4.3199497538       -1.2233804295
 H         -2.5334579757        5.1468146073       -0.0544793399
 C         -1.6779509536        3.3251710259       -0.8137639560
 H         -0.8088880991        3.9748131955       -0.9425766998
 H         -1.4332142559        2.6035905198       -0.0307096649
 C         -1.8765966431        2.5692324545       -2.1272343698
 H         -2.0104495495        3.2807379510       -2.9450818526
 H         -0.9710555598        1.9916516579       -2.3322487942
 C         -3.0663576060        1.6002683658       -2.1190701323
 H         -4.0025425625        2.1547553130       -2.1766267031
 H         -2.9888723585        0.9531033288       -2.9961760566
 H         -2.9981047507        3.3276198489        1.6102436018
 H         -4.3762013563        4.3286458763        1.1514342110
 H         -5.1079860805        2.5079187348       -0.4335284451
 H         -5.1645931242        2.1039561690        1.2906981374
 O         -3.6075893710        0.3239995861        1.3644812474
 C         -2.8690476596       -0.8453222582        1.3978162489
 O         -2.8902022070       -1.4269782264        2.5003488043
 H          0.2797315054       -1.4821155846       -1.4351925937
 C          0.7847278683       -1.7288883852       -0.5134091748
 C          0.0603382016       -2.2876045986        0.5297028820
 C          0.7203616776       -2.5708527343        1.7200272178
 C          2.0744028183       -2.3161323844        1.8534631225
 C          2.7956124356       -1.7664087599        0.8085626174
 C          2.1396159225       -1.4619285607       -0.3775917441
 N          2.8477085055       -0.8807563170       -1.4410573268
 S          3.9859728663        0.2929271741       -1.1052950343
 O          4.0376720750        1.1228597238       -2.2882917346
 O          5.2279936544       -0.3354623603       -0.7270816291
 C          3.3532216311        1.2279487661        0.2784629350
 C          4.1361123191        1.3798399436        1.4051058519
 C          3.6458838362        2.1166076847        2.4711551460
 C          2.3850560160        2.6865104302        2.3923235210
 C          1.6111283733        2.5267225747        1.2531397158
 C          2.0960859858        1.7912707431        0.1838302775
 H          1.5116139974        1.6532464148       -0.7124897478
 H          0.6304058825        2.9710925931        1.1937726219
 H          2.0004127993        3.2593221604        3.2213274047
 H          4.2461213414        2.2426433698        3.3576949037
 H          5.1098884214        0.9178456155        1.4235034994
 H          2.2681612709       -0.6297329242       -2.2283166939
 H          3.8531750168       -1.5747424069        0.8919470523
 H          2.5749671886       -2.5481070688        2.7810057097
 H          0.1610395886       -2.9846568482        2.5464578585
 C         -1.4177248208       -2.5605336724        0.3791304917
 H         -1.7696107869       -3.0172182406        1.3134124809
 C         -1.6823150345       -3.5322506839       -0.7550483984
 C         -1.4003152952       -4.9877992222       -0.5425648501
 C         -2.8157796965       -4.5038583286       -0.6362193479
 H         -3.3868622443       -4.7401717387       -1.5215778063
 H         -3.4063698402       -4.4748737961        0.2681744307
 H         -0.9962868549       -5.5594927828       -1.3639260992
 H         -1.0314182311       -5.2894497310        0.4261371692
 H         -1.4858014638       -3.1188583644       -1.7352296555
 O         -1.7032683347       -0.8367506276       -2.0423882686
