  62
        -98.93482686
 C          1.8930695893        0.7678413545       -0.1247027380
 C          2.9345948268        0.7244999371        0.8384216896
 C          4.0706838885       -0.1572735078        0.5430943508
 C          4.0670748484       -0.8841943315       -0.5880892502
 C          5.1095272565       -1.8780448454       -1.0280605791
 C          6.5091816877       -1.3109830675       -1.3333035233
 C          7.4841709797       -1.3624190547       -0.1504942193
 H          7.1650817530       -2.1496610882        0.5337347459
 H          8.4702817166       -1.6502192710       -0.5206549288
 C          7.6622822561       -0.0531167733        0.6239885811
 H          8.3138020737        0.6128078851        0.0534810119
 H          8.1711391487       -0.2861191432        1.5618406532
 C          6.3791424444        0.7175444396        0.9351741646
 H          6.6208246814        1.5083468007        1.6480627840
 H          6.0218708368        1.2162529094        0.0310133202
 C          5.2307397707       -0.1439550448        1.4953872775
 H          5.5726839021       -1.1580644180        1.6972511414
 H          4.8622861744        0.2872003021        2.4283571038
 H          6.9239527568       -1.9142638727       -2.1424756888
 H          6.4153456605       -0.2914961620       -1.7065084880
 H          4.7072678880       -2.3390098983       -1.9326593178
 H          5.1927572522       -2.6570005737       -0.2664904073
 O          3.0433751230       -0.8276739726       -1.4808728947
 C          1.9396936980       -0.0057132161       -1.2848021522
 O          1.1014646702       -0.0782347674       -2.2034762841
 O          2.9130042635        1.3980244933        1.9029913782
 C          0.7322862257        1.7007077697        0.1748656808
 C         -0.4114270413        0.9686969076        0.8290126823
 C         -0.9819463399        1.4398105611        2.0055176608
 C         -2.0373243807        0.7664754505        2.5967895171
 C         -2.5490720293       -0.3836026200        2.0240101838
 C         -1.9896469611       -0.8589948715        0.8443260303
 C         -0.9295167968       -0.1848063632        0.2555570519
 H         -0.4998366749       -0.5588265960       -0.6620580793
 N         -2.5139453597       -2.0166751706        0.2424043407
 S         -4.1782803947       -2.1008452762        0.0726880372
 O         -4.7648090599       -2.5378320922        1.3154877108
 O         -4.4061691170       -2.9587609886       -1.0683363230
 C         -4.6903022681       -0.4286512034       -0.2802101993
 C         -5.4803028712        0.2565081287        0.6203499759
 C         -5.8225661604        1.5711092073        0.3466649159
 C         -5.3682337256        2.1753043717       -0.8151201651
 C         -4.5804529672        1.4717897251       -1.7133931548
 C         -4.2351339063        0.1571138137       -1.4450125946
 H         -3.6246125069       -0.4176375298       -2.1240725206
 H         -4.2258181304        1.9434879284       -2.6156530965
 H         -5.6279286851        3.2007740835       -1.0246914028
 H         -6.4373267422        2.1198891308        1.0416634618
 H         -5.8102312923       -0.2514071782        1.5117662971
 H         -2.0466345911       -2.2692983132       -0.6162363535
 H         -3.3644553334       -0.9263694122        2.4737744923
 H         -2.4654313491        1.1396179905        3.5143093794
 H         -0.5822316599        2.3317143081        2.4649499137
 H          1.1342783636        2.4085585319        0.9166516348
 C          0.2972322906        2.5169351502       -1.0355633669
 C         -0.9870247398        2.2998244339       -1.7718076168
 C         -0.8177833956        3.5131531637       -0.9110486685
 H         -0.7053110642        4.4765987451       -1.3842294187
 H         -1.3575075381        3.5363254929        0.0235027599
 H         -0.9687665830        2.4111862099       -2.8451939769
 H         -1.6490676305        1.5218352158       -1.4267194295
 H          1.1484376671        2.8136060650       -1.6408183206
