  62
        -98.93962629
 C         -2.6380351522       -1.2761999519        0.0405621863
 C         -2.7264998959       -0.2490783710       -0.9297651356
 C         -4.0578892504        0.3445137176       -1.1050677278
 C         -5.0967426024       -0.1135577221       -0.3832669393
 C         -6.5163502523        0.3788153322       -0.4638344663
 C         -6.7927936022        1.6262515926        0.3867517458
 C         -6.1894726655        2.9258019604       -0.1478895552
 H         -6.4760245367        3.0558091348       -1.1918928292
 H         -6.6393929074        3.7441762312        0.4177183515
 C         -4.6625737369        3.0166824479       -0.0159985924
 H         -4.3127271053        2.2720270470        0.7029385186
 H         -4.3882083742        3.9961927463        0.3822202916
 C         -3.9000250021        2.8318328555       -1.3280600077
 H         -4.1365852584        3.6531954840       -2.0081276495
 H         -2.8294740018        2.8715129435       -1.1098507742
 C         -4.1884888250        1.5056727586       -2.0435844044
 H         -5.1820021383        1.5267141251       -2.4907212540
 H         -3.4479116395        1.3765694853       -2.8365317479
 H         -6.4278340328        1.4456889570        1.4005638538
 H         -7.8768847934        1.7495705074        0.4412200403
 H         -6.7759598062        0.5808355744       -1.5032774358
 H         -7.1482861024       -0.4334596752       -0.0983681281
 O         -4.9735289597       -1.1225592228        0.5205701567
 C         -3.7430462138       -1.7074848273        0.7733994457
 O         -3.7635991872       -2.5885493266        1.6574626352
 H          1.2340966708       -1.3462396139       -0.6227623485
 C          0.9303571187       -0.7023975602        0.1878285128
 C         -0.3143970610       -0.8676820305        0.7720316793
 C         -0.6718683921       -0.0269010019        1.8232789838
 C          0.1851295528        0.9643291354        2.2596147421
 C          1.4184261456        1.1423930790        1.6570837252
 C          1.7900474443        0.3035113207        0.6163797899
 N          3.0318861285        0.4871506232       -0.0165229638
 S          4.3750261350        0.8057761522        0.9551452909
 O          4.4180770758       -0.1233738219        2.0625983190
 O          4.3684635093        2.2033671735        1.3078033308
 C          5.6996015387        0.4762505191       -0.1900246935
 C          6.0641895391        1.4638422927       -1.0853807996
 C          7.0736346751        1.2004828241       -1.9974837384
 C          7.6968759861       -0.0387045384       -1.9998863093
 C          7.3205792475       -1.0194048015       -1.0944307911
 C          6.3110101174       -0.7631068298       -0.1799924368
 H          5.9920149603       -1.4921824905        0.5476014880
 H          7.8089813892       -1.9805616422       -1.0973012746
 H          8.4828578891       -0.2407092923       -2.7103281844
 H          7.3708096962        1.9607035082       -2.7017465556
 H          5.5574462463        2.4136903019       -1.0411792534
 H          3.2299621036       -0.2419356445       -0.6880910162
 H          2.0957806829        1.9145162287        1.9845789864
 H         -0.1086638595        1.6092769786        3.0746880973
 H         -1.6377694217       -0.1614017891        2.2925309409
 C         -1.2969147441       -1.9260886066        0.3304917356
 H         -1.4644508686       -2.6082265737        1.1767617942
 C         -0.8376010416       -2.7345211721       -0.8645161665
 C          0.0831115382       -3.9018456391       -0.6761194636
 C         -1.3542376346       -4.1303990327       -1.0333215542
 H         -1.5911544960       -4.4756345851       -2.0284609307
 H         -2.0204883906       -4.5073710313       -0.2709169262
 H          0.3979858627       -4.1324849287        0.3305387367
 H          0.8321427658       -4.0964599349       -1.4289890857
 H         -0.7283534811       -2.1310091133       -1.7582116516
 O         -1.7506781678        0.1503499661       -1.6161447452
