  62
        -98.94183121
 C          2.2628322997        0.7147218401        0.1217319526
 C          3.4409032824        1.0150987223        0.8557948032
 C          4.3973155995       -0.0828147186        1.0286999088
 C          4.0973781337       -1.3060848558        0.5574664566
 C          4.9575201031       -2.5351676645        0.6721074605
 C          6.0356486722       -2.6437095361       -0.4152022827
 C          7.2076142570       -1.6719123853       -0.2698824266
 H          7.6153359437       -1.7450814874        0.7387663892
 H          7.9854099204       -2.0035540191       -0.9605673985
 C          6.8614171868       -0.2093749559       -0.5827183604
 H          5.9221898114       -0.1692928407       -1.1395859038
 H          7.6330126894        0.2177010082       -1.2272586361
 C          6.7477869856        0.6920821282        0.6468289489
 H          6.4634695354        1.6934088291        0.3130678775
 H          7.7202887971        0.7652632938        1.1383747611
 C          5.7127493949        0.2241753680        1.6782709019
 H          6.0842888493       -0.6479271643        2.2157016733
 H          5.5493118145        1.0342006392        2.3931913446
 H          6.4296023198       -3.6621349447       -0.3820555146
 H          5.5633540170       -2.5026866730       -1.3903274353
 H          5.4265637465       -2.5642975993        1.6560342625
 H          4.2874241302       -3.3928099868        0.5805500171
 O          2.9288297091       -1.5730189392       -0.0814118876
 C          1.9926418101       -0.5758142309       -0.3376100853
 O          0.9977767558       -0.9829115590       -0.9670136023
 O          3.6806617423        2.1502858227        1.3452353577
 C          1.2757646774        1.8502826274       -0.0894242359
 C         -0.1054777009        1.4175880872        0.3273650248
 C         -0.4261350257        1.3734174989        1.6810416530
 C         -1.6697737091        0.9374240048        2.0967436567
 C         -2.6162097118        0.5285200277        1.1730854677
 C         -2.2980407900        0.5489584746       -0.1777114227
 C         -1.0557903531        1.0104015568       -0.5943841508
 H         -0.8133437445        1.0097533425       -1.6456320977
 N         -3.2454149447        0.1330066584       -1.1261603240
 S         -4.2033147353       -1.2060591681       -0.8127690215
 O         -3.5454765178       -2.1693548969        0.0388250824
 O         -4.6211363999       -1.6779336396       -2.1154642184
 C         -5.6168192355       -0.5154195171        0.0258819031
 C         -6.2607328156        0.5595869024       -0.5551504451
 C         -7.3685141289        1.0991864084        0.0786477687
 C         -7.8144540404        0.5559798073        1.2743303218
 C         -7.1599797743       -0.5256108968        1.8432024794
 C         -6.0503738540       -1.0692575827        1.2144563137
 H         -5.5067615337       -1.9066472067        1.6228197195
 H         -7.5077562310       -0.9473435926        2.7725875679
 H         -8.6768810037        0.9778871289        1.7658313111
 H         -7.8796098417        1.9406872867       -0.3606970802
 H         -5.8850079894        0.9507089513       -1.4857036481
 H         -2.8865252936        0.1059037322       -2.0695746089
 H         -3.5821124134        0.1722192518        1.4914307925
 H         -1.9062190601        0.9111688004        3.1496906855
 H          0.3182918455        1.6756759747        2.4048066133
 H          1.6130107624        2.6318123224        0.6106151357
 C          1.3134844518        2.4716693707       -1.4779393760
 C          2.6189512130        2.6521345024       -2.1918653638
 C          1.6012304551        1.6900821907       -2.7233155935
 H          1.0688139568        1.9564331950       -3.6252303202
 H          1.7887728692        0.6320367229       -2.6278901558
 H          2.7924766946        3.5713470662       -2.7305125982
 H          3.5021904537        2.2487005175       -1.7181029547
 H          0.5959211847        3.2812821088       -1.5721983139
