  62
        -98.94686119
 C         -1.2400573668       -1.2175863215        0.0874409849
 C         -1.9930146285       -0.6910834328        1.1627105222
 C         -2.6710756068        0.5866157614        0.9068546657
 C         -2.5117526665        1.1868440734       -0.2871961155
 C         -3.1964630515        2.4560607985       -0.7027538279
 C         -4.5349023328        2.1618453444       -1.3950843929
 C         -5.4312257210        1.1939377729       -0.6228314160
 H         -6.3591148265        1.0872318424       -1.1888864545
 H         -4.9564076815        0.2105058700       -0.5966253431
 C         -5.7560051384        1.6364355602        0.8107492469
 H         -6.8223081590        1.4849672118        0.9915608097
 H         -5.5576611756        2.7028441849        0.9242878350
 C         -5.0067674879        0.8632376813        1.8975562983
 H         -5.4636695495        1.1022895049        2.8617442999
 H         -5.1312637887       -0.2104331398        1.7349041092
 C         -3.5067715496        1.1621321420        2.0156071087
 H         -3.3522565417        2.2400449014        2.0972349952
 H         -3.1475638607        0.6937086124        2.9369199253
 H         -5.0614379747        3.1062482510       -1.5444769699
 H         -4.3296130475        1.7278913656       -2.3762203238
 H         -2.5485606690        2.9866679289       -1.4013463444
 H         -3.3600251135        3.0800240876        0.1736941246
 O         -1.7420792963        0.6734906027       -1.2785063471
 C         -1.0837471996       -0.5364692551       -1.1208720492
 O         -0.4081132113       -0.8866273871       -2.1040806490
 O         -2.0870816427       -1.2586435905        2.2858429257
 C         -0.5141354224       -2.5388089480        0.2721398922
 C          0.9709164839       -2.3048749926        0.1505443478
 C          1.7991524429       -3.0064981496       -0.7140247983
 C          3.1464219954       -2.6964932065       -0.8007382943
 C          3.6968758366       -1.6920351359       -0.0263584626
 C          2.8780529225       -0.9940034834        0.8523534729
 C          1.5310465965       -1.3039241521        0.9361496291
 H          0.8944274764       -0.7529618083        1.6179203153
 N          3.4264135857        0.0401469779        1.6445326473
 S          4.0006814605        1.3700770619        0.8016199174
 O          5.1758997627        0.9811731818        0.0653696674
 O          4.1806262069        2.4057609676        1.7938277452
 C          2.6901331386        1.8148087347       -0.3222369814
 C          2.6512530957        1.2428689136       -1.5777599605
 C          1.6052465260        1.5641509636       -2.4271476923
 C          0.6216245528        2.4455440063       -2.0077914506
 C          0.6692143004        3.0040702734       -0.7398534076
 C          1.7102485503        2.6830832467        0.1155580538
 H          1.7880749670        3.1028280026        1.1060941103
 H         -0.1024784518        3.6831623376       -0.4130687362
 H         -0.1914487653        2.6873862366       -2.6738504919
 H          1.5507434508        1.1155879796       -3.4054272426
 H          3.4364250034        0.5652438419       -1.8706667296
 H          2.7912135699        0.3589739478        2.3633454890
 H          4.7389308800       -1.4252274110       -0.0969077398
 H          3.7764660166       -3.2444102361       -1.4848578518
 H          1.3896105790       -3.7891089007       -1.3308375725
 H         -0.7288587290       -2.8508065876        1.3049445106
 C         -1.0509706607       -3.5880658666       -0.6769773464
 C         -0.9438650922       -5.0417635323       -0.3286349396
 C         -2.2765045921       -4.3577986128       -0.2891276202
 H         -3.0018470705       -4.5929546052       -1.0535656881
 H         -2.7140802708       -4.1432230821        0.6751290309
 H         -0.7561058154       -5.7501928519       -1.1211843330
 H         -0.4777189902       -5.2978052193        0.6107838876
 H         -0.9502317161       -3.3008707096       -1.7172788102
