  62
        -98.93649584
 C          2.3490580259       -1.2893365359        0.0799595958
 C          3.1262848265       -0.5595366371       -0.8489910814
 C          3.9821848913        0.4940788224       -0.2876254713
 C          3.9864278603        0.7093894857        1.0405433313
 C          4.8377183242        1.7013370887        1.7886643560
 C          4.5663802448        3.1905586654        1.5003076089
 C          5.4644532926        3.7992714364        0.4161981848
 H          5.7498375136        4.8077366908        0.7222989656
 H          6.3852887033        3.2179832363        0.3559956218
 C          4.8422564008        3.9163741457       -0.9785966163
 H          4.1650085689        4.7734341781       -0.9970090032
 H          5.6469349996        4.1187822651       -1.6886364981
 C          4.0522957151        2.6996667295       -1.4611479783
 H          3.0858630189        2.6645763766       -0.9516591550
 H          3.8345603931        2.8328807035       -2.5229824439
 C          4.7594522058        1.3469192128       -1.2477928625
 H          5.7771737612        1.4970703096       -0.8908325790
 H          4.8021501626        0.7969156070       -2.1901388092
 H          3.5154042891        3.3268428669        1.2463623064
 H          4.7456175237        3.7297304625        2.4317903522
 H          5.8886890424        1.4802575207        1.5892892051
 H          4.6498529057        1.5038931237        2.8459372606
 O          3.2130737768       -0.0093262891        1.8995469913
 C          2.3668091962       -1.0108017621        1.4468390053
 O          1.7024162200       -1.5649945521        2.3414493002
 O          3.1074550008       -0.7788073973       -2.0913928641
 C          1.4386698193       -2.3926235289       -0.4257658409
 C         -0.0019896897       -2.0784370573       -0.1023672281
 C         -0.8912430909       -3.0145998260        0.4080794387
 C         -2.2044576510       -2.6636635792        0.6707404473
 C         -2.6601409039       -1.3812011941        0.4296127012
 C         -1.7839821181       -0.4400490480       -0.0957423137
 C         -0.4712737841       -0.7962855473       -0.3623021381
 H          0.2096448286       -0.0615232246       -0.7759301353
 N         -2.2354703492        0.8699694536       -0.3381537467
 S         -3.6271631526        1.0673251316       -1.2588972208
 O         -3.7997255038       -0.0201239618       -2.1940246218
 O         -3.5179268228        2.3932749887       -1.8271926432
 C         -4.9418255452        1.0562438214       -0.0588203725
 C         -5.9700997871        0.1412360517       -0.1723313543
 C         -6.9864138394        0.1554997499        0.7703429323
 C         -6.9569773438        1.0802891304        1.8028689456
 C         -5.9185659254        1.9946357023        1.9007369857
 C         -4.8998310681        1.9860923312        0.9614967508
 H         -4.0772429338        2.6806970613        0.9996119741
 H         -5.8991603339        2.7121894240        2.7051231958
 H         -7.7479730531        1.0889993666        2.5360081781
 H         -7.7947412526       -0.5540043556        0.6959618711
 H         -5.9478429696       -0.5619645989       -0.9895218841
 H         -1.5101884041        1.4934516427       -0.6619235674
 H         -3.6794971667       -1.1030679703        0.6412694474
 H         -2.8821184695       -3.4002609908        1.0743807094
 H         -0.5556950404       -4.0193899199        0.6047429273
 H          1.5483865116       -2.3823427627       -1.5211302633
 C          1.8986898627       -3.7379266044        0.0955593681
 C          1.6650580808       -4.9811318604       -0.7081324797
 C          3.0484192623       -4.4197110443       -0.5816055266
 H          3.7674593159       -4.9458856902        0.0280534700
 H          3.4823546202       -3.9253803022       -1.4387209373
 H          1.4364138155       -5.8978136154       -0.1858207148
 H          1.1609748563       -4.8757024923       -1.6570134671
 H          1.8433960174       -3.8051536458        1.1761913089
