  62
        -98.94758020
 C         -0.8080264436       -1.1565834619        0.5964920355
 C         -1.2773557700       -0.7698380415       -0.6819719490
 C         -2.1994050055        0.3723046588       -0.6993132720
 C         -2.5028973520        1.0047310939        0.4481959167
 C         -3.4651720414        2.1516531867        0.5966486363
 C         -4.9310508034        1.7111561261        0.7188755904
 C         -5.5702173804        1.2172214842       -0.5798123756
 H         -6.6461074474        1.1566982453       -0.4037101852
 H         -5.4104207623        1.9555863867       -1.3660256666
 C         -5.0716951665       -0.1555416194       -1.0525265420
 H         -4.5817815470       -0.6715875591       -0.2234290948
 H         -5.9252788202       -0.7690711981       -1.3500066651
 C         -4.1121126004       -0.1090158450       -2.2419827340
 H         -4.6325397215        0.2862498969       -3.1171208240
 H         -3.8009956248       -1.1318396543       -2.4688273018
 C         -2.8478536008        0.7277704266       -2.0028727600
 H         -3.0877874020        1.7897221923       -2.0328837924
 H         -2.1338228704        0.5044287636       -2.7989815040
 H         -5.5021523493        2.5723629045        1.0733796435
 H         -5.0012922692        0.9308095144        1.4802222250
 H         -3.1876937970        2.6794078099        1.5107466180
 H         -3.3645793249        2.8311782672       -0.2486767564
 O         -1.9521237333        0.6601323274        1.6434594190
 C         -1.1154247570       -0.4388042651        1.7509342126
 O         -0.7126253375       -0.6677143275        2.9109685280
 O         -0.9584771427       -1.3554967734       -1.7484889565
 C          0.0647469797       -2.3897964087        0.7342922401
 C          1.2900604978       -2.2775899254       -0.1388999188
 C          1.7842843083       -3.3288958111       -0.9002025497
 C          2.9231651292       -3.1593896830       -1.6681999565
 C          3.5945001104       -1.9512121835       -1.6858293032
 C          3.1111054212       -0.8942032777       -0.9216879565
 C          1.9699297919       -1.0666334199       -0.1564138810
 H          1.5991049970       -0.2483303560        0.4438432919
 N          3.7458667830        0.3533625122       -0.9438440312
 S          3.6244860616        1.4223581583        0.3261957526
 O          4.6574113915        2.4024041935        0.0619379791
 O          3.7080707073        0.7564892366        1.6056417628
 C          2.0384282143        2.2023622513        0.1213077421
 C          1.6374094248        2.5723040471       -1.1467684985
 C          0.4371142865        3.2468638405       -1.2976503579
 C         -0.3309510689        3.5486497644       -0.1840385032
 C          0.0814737517        3.1639338104        1.0817495566
 C          1.2770824395        2.4820004166        1.2382675876
 H          1.6256325241        2.1520230721        2.2049665390
 H         -0.5204172045        3.3862485668        1.9484788491
 H         -1.2549901091        4.0915094954       -0.3004940231
 H          0.1065847034        3.5393137717       -2.2811665522
 H          2.2630416033        2.3275850149       -1.9888764683
 H          4.6311061780        0.3957620923       -1.4251801739
 H          4.4810897064       -1.8202193290       -2.2870067491
 H          3.2950942199       -3.9819188035       -2.2601539713
 H          1.2764589809       -4.2793250544       -0.8970066081
 H          0.3992449098       -2.4137733555        1.7826717494
 C         -0.7606561179       -3.6304328207        0.4556718231
 C         -0.4542262642       -4.9205835369        1.1530873609
 C         -1.6790523679       -4.1408012431        1.5235462927
 H         -2.6453686458       -4.5259380781        1.2341493259
 H         -1.6847836788       -3.6101107675        2.4649865624
 H         -0.5830435936       -5.8449796179        0.6103824780
 H          0.3695559076       -4.9286756162        1.8509597976
 H         -1.1135865528       -3.6713455566       -0.5686372787
