  62
        -98.94763809
 C         -1.0841511304       -0.8715024195        0.7118655804
 C         -1.8163178401       -0.8113883902       -0.4976901997
 C         -2.4847615098        0.4657153497       -0.7742554408
 C         -2.3033664697        1.5097776503        0.0532646684
 C         -2.8827870994        2.8879927303       -0.1188302727
 C         -4.3199515795        3.0331551010        0.4009638869
 C         -5.3936753995        2.3549364406       -0.4507185827
 H         -6.3601523294        2.7191802110       -0.0967403132
 H         -5.2859871392        2.6724379198       -1.4883662630
 C         -5.3866476698        0.8217697506       -0.3762214616
 H         -4.8133595200        0.5019847812        0.4968193388
 H         -6.4079032499        0.4589615809       -0.2406327915
 C         -4.8210877797        0.1305921196       -1.6169473110
 H         -5.4624678595        0.3366918391       -2.4767147712
 H         -4.8278173500       -0.9482551203       -1.4423120402
 C         -3.3856742196        0.5432951490       -1.9691607810
 H         -2.9984916296       -0.1517401916       -2.7186897504
 H         -3.3729756393        1.5484922887       -2.3910239418
 H         -4.3628989997        2.6420848217        1.4200170472
 H         -4.5429376892        4.1017284111        0.4444565161
 H         -2.2419196694        3.5685483006        0.4464456269
 H         -2.8407824492        3.1711540895       -1.1713131329
 O         -1.5285334899        1.4341383809        1.1681941286
 C         -0.9154101903        0.2436734611        1.5307439096
 O         -0.2519902904        0.3093749917        2.5856404897
 H          1.4287674098       -0.4031518704        0.2073120105
 C          1.5358152097       -1.3430666108       -0.3140630187
 C          0.7045037994       -2.4026551804        0.0282840619
 C          0.8620480193       -3.6121682109       -0.6334769172
 C          1.8043107294       -3.7355915419       -1.6409883269
 C          2.5910021397       -2.6622035123       -2.0157992676
 C          2.4527652099       -1.4515466818       -1.3445285285
 N          3.2410650902       -0.3412886322       -1.6770712692
 S          2.6544912705        1.2102050581       -1.4632989205
 O          1.2361658605        1.3043923682       -1.7228760508
 O          3.5046059208        2.0250291972       -2.3079790009
 C          3.0177810302        1.5815549093        0.2384801593
 C          2.0675256402        2.2093937800        1.0174488587
 C          2.3702433901        2.5086534110        2.3360477285
 C          3.6154457599        2.1798234411        2.8478436290
 C          4.5634947299        1.5566737203        2.0499954696
 C          4.2656861501        1.2540356793        0.7315432798
 H          4.9740914001        0.7681511987        0.0816762503
 H          5.5305795398        1.3026859004        2.4533162700
 H          3.8449812298        2.4091599218        3.8764909689
 H          1.6252728101        2.9801637016        2.9564096680
 H          1.1022667204        2.4324074699        0.5886763384
 H          3.7950338103       -0.4357857430       -2.5153374290
 H          3.3027535498       -2.7539030631       -2.8219115774
 H          1.9133286393       -4.6779587923       -2.1562067662
 H          0.2378524090       -4.4516151506       -0.3751339266
 C         -0.3384495407       -2.1410920994        1.0884080215
 H          0.1794482192       -1.9219987888        2.0335264115
 C         -1.2962850110       -3.2918067890        1.3063688122
 C         -0.9175914114       -4.4217207584        2.2147384931
 C         -1.9631426213       -3.4363276179        2.6401826522
 H         -2.9942108213       -3.7552828576        2.6689335023
 H         -1.7082040612       -2.7146585474        3.4027769317
 H          0.0476940785       -4.3737566383        2.6953630133
 H         -1.2330008916       -5.4207594285        1.9545837938
 H         -1.8863030109       -3.5155941095        0.4253871123
 O         -1.9146196402       -1.7728798808       -1.3047585690
