  62
        -98.94291434
 C         -2.6476069407       -1.1837238919        0.2551980529
 C         -2.7724387909       -0.3309516067       -0.8682060336
 C         -3.7722198522        0.7423743016       -0.7542340439
 C         -4.5086979184        0.8519481244        0.3655107372
 C         -5.5129052379        1.9339724070        0.6341620823
 C         -4.8635924213        3.1289652226        1.3464444776
 C         -3.5734961204        3.6157802148        0.6862837684
 H         -3.2233382515        4.4796452637        1.2553309223
 H         -2.8101754971        2.8395730406        0.7791381805
 C         -3.7235965186        4.0043389521       -0.7912602208
 H         -3.2028970092        4.9493410828       -0.9597067566
 H         -4.7758084681        4.1682322633       -1.0264702323
 C         -3.1370944432        2.9913162415       -1.7763184816
 H         -3.0990578723        3.4597017499       -2.7635718921
 H         -2.1099693103        2.7526240750       -1.4880306723
 C         -3.9146633329        1.6770857730       -1.9228567998
 H         -4.9669676972        1.8916993048       -2.1189405438
 H         -3.5067357750        1.1437756038       -2.7865418395
 H         -4.6327343280        2.8359219653        2.3731701234
 H         -5.5875440847        3.9450920828        1.3804113458
 H         -5.9553050092        2.2546120746       -0.3069540472
 H         -6.2970546162        1.5239214076        1.2727465206
 O         -4.3812906642        0.0011512381        1.4143264984
 C         -3.4513744391       -1.0216829648        1.3898780674
 O         -3.4377713383       -1.7204959016        2.4226163061
 H         -0.0808646578       -0.7076115980       -1.1531542903
 C          0.4112886083       -1.0233893810       -0.2451161046
 C         -0.2625826989       -1.8560799287        0.6367760327
 C          0.3826506089       -2.2484270314        1.8037753536
 C          1.6675243429       -1.8137434082        2.0780753544
 C          2.3319466480       -0.9755942579        1.2005656539
 C          1.6959078151       -0.5769486238        0.0321636209
 N          2.3440494886        0.2991377041       -0.8540986330
 S          3.9300655111       -0.0169772193       -1.2952414992
 O          4.1118738236        0.6514426664       -2.5651378778
 O          4.2183196676       -1.4324175030       -1.2676597894
 C          4.8923443141        0.8260621873       -0.0562939945
 C          5.8711575850        0.1437557236        0.6392397067
 C          6.6156118343        0.8243680876        1.5902976967
 C          6.3701301197        2.1682763645        1.8264649391
 C          5.3851467402        2.8398162441        1.1173601642
 C          4.6382510012        2.1655158671        0.1647367942
 H          3.8660509525        2.6509664534       -0.4086368843
 H          5.1968878232        3.8848794666        1.3039652256
 H          6.9495392947        2.6959121475        2.5675562831
 H          7.3819980818        0.3042647528        2.1422160900
 H          6.0227194099       -0.9024436509        0.4259940071
 H          1.7839704847        0.5433735790       -1.6582508781
 H          3.3315584067       -0.6319086103        1.4109359794
 H          2.1563996151       -2.1273609024        2.9878159508
 H         -0.1349305162       -2.8904355035        2.5017484265
 C         -1.6600612555       -2.3391924426        0.3266494653
 H         -1.9934526066       -2.9570248547        1.1710224848
 C         -1.6657889129       -3.2002973395       -0.9224147406
 C         -1.1765379787       -4.6129550490       -0.8320622315
 C         -2.6368612711       -4.3357750475       -1.0250736406
 H         -3.0823006307       -4.5472340599       -1.9855968447
 H         -3.3020957646       -4.5008756106       -0.1897823664
 H         -0.8522014505       -4.9692024425        0.1340377984
 H         -0.6141441689       -5.0169307580       -1.6599832273
 H         -1.4495445928       -2.6496032844       -1.8283244843
 O         -2.0946283392       -0.4339535503       -1.9271724912
