  62
        -98.93863094
 C          2.1913866420        1.0048810700        0.4896460880
 C          2.5429757050        0.2920307860       -0.6793465633
 C          3.4348265303       -0.8729933503       -0.5026221914
 C          3.7984038844       -1.2300181527        0.7429061159
 C          4.7285276648       -2.3397136709        1.1523246252
 C          6.2084792806       -1.9772392228        0.9328644874
 C          6.5068669973       -1.2323487689       -0.3664970651
 H          7.5497971478       -0.9067035729       -0.3305498254
 H          5.8891954791       -0.3335126170       -0.4144286881
 C          6.3179585465       -2.0471995798       -1.6438048437
 H          7.0074891010       -2.8945086305       -1.6314105905
 H          6.5946356767       -1.4057205607       -2.4843527159
 C          4.9074198955       -2.5819452725       -1.8941724187
 H          4.6903463861       -3.4211316554       -1.2388054166
 H          4.8840527125       -2.9727455001       -2.9158535592
 C          3.7969766901       -1.5382026922       -1.8084691884
 H          2.8680668304       -1.9879282464       -2.1814807097
 H          4.0212018988       -0.7216545274       -2.5040469556
 H          6.7992104717       -2.8936208518        0.9742929144
 H          6.5218873836       -1.3356486619        1.7598486049
 H          4.4664592812       -3.2541823870        0.6281282437
 H          4.5667595984       -2.5104939505        2.2189308304
 O          3.3740198542       -0.5534792198        1.8486583291
 C          2.5753650727        0.5688827390        1.7567940624
 O          2.2691186309        1.0772988306        2.8558594360
 O          2.1497664438        0.6134503077       -1.8310919005
 C          1.3232320753        2.2492803657        0.4061917776
 C         -0.0558428210        1.8701788762       -0.0779237381
 C         -0.6480605169        2.3922762446       -1.2191969883
 C         -1.9134359943        1.9784855500       -1.5998652307
 C         -2.6169433468        1.0539483908       -0.8503130393
 C         -2.0336966361        0.5256949036        0.2948397270
 C         -0.7632880993        0.9354646867        0.6690060902
 H         -0.3044023008        0.5230430168        1.5598152210
 N         -2.7466171458       -0.3895268106        1.0862054478
 S         -3.5934959782       -1.6342110328        0.3494884706
 O         -3.7267702007       -2.6504923824        1.3708493272
 O         -2.9728878969       -2.0470263975       -0.8881707873
 C         -5.1937417889       -0.9207548742        0.0297427807
 C         -5.7503622614       -1.0113793210       -1.2309646305
 C         -7.0012868906       -0.4562620548       -1.4527178812
 C         -7.6700480283        0.1750670301       -0.4153091075
 C         -7.0983806100        0.2549192388        0.8459122905
 C         -5.8489925767       -0.2988644054        1.0746079832
 H         -5.3711659588       -0.2589777897        2.0392174125
 H         -7.6208524764        0.7472479743        1.6502447499
 H         -8.6423291579        0.6077434485       -0.5905758973
 H         -7.4470808527       -0.5177281601       -2.4324673118
 H         -5.1902739618       -1.5052675001       -2.0091487622
 H         -2.2336687112       -0.7215943892        1.8897341614
 H         -3.6012863621        0.7308346924       -1.1465888458
 H         -2.3604401503        2.3856507965       -2.4938666188
 H         -0.1163472723        3.1132081492       -1.8172923597
 H          1.2240603979        2.6124929777        1.4394937461
 C          1.9950312451        3.3215961467       -0.4237935535
 C          1.6303832137        4.7600467657       -0.2175937580
 C          2.9632300864        4.2515988435        0.2410021333
 H          3.8465881787        4.5507941549       -0.3029201055
 H          3.1271485948        4.1244868014        1.3015024396
 H          1.6000034905        5.4130993723       -1.0763996531
 H          0.8878267171        4.9833452892        0.5333718334
 H          2.2314259769        2.9899342094       -1.4276388064
