  62
        -98.93783001
 C          1.3467061251        1.4931741468       -0.5705240493
 C          2.5693185888        1.5020328563        0.1431738073
 C          3.5869756760        0.5010284691       -0.2272785405
 C          3.3032217160       -0.3676699554       -1.2152137566
 C          4.1486588713       -1.4983881469       -1.7393586293
 C          4.1557602718       -2.7128954214       -0.7986433048
 C          4.3578466505       -2.3788931588        0.6768730417
 H          3.5552931619       -1.7149168672        1.0046766081
 H          4.2548377475       -3.3086807671        1.2430243104
 C          5.7105508078       -1.7628248013        1.0277560488
 H          5.7544709154       -1.6819190776        2.1168667808
 H          6.5051651803       -2.4430107636        0.7131977352
 C          5.9909688776       -0.3778800145        0.4390902859
 H          6.8456470100        0.0378733070        0.9806013665
 H          6.2898385729       -0.4456362979       -0.6035423034
 C          4.8487862185        0.6211197909        0.5930862525
 H          4.5283058629        0.6427205845        1.6410590016
 H          5.2348376260        1.6275406703        0.3906434388
 H          4.9351161777       -3.4017770225       -1.1298190064
 H          3.1916659616       -3.2198064058       -0.8935218890
 H          3.7097183927       -1.8015173234       -2.6926537457
 H          5.1600413888       -1.1536462097       -1.9337325836
 O          2.1154070972       -0.3405971698       -1.8800379887
 C          1.1045481315        0.5580251863       -1.5773215132
 O          0.0875216603        0.4180795460       -2.2809938348
 H         -0.6328220604        0.0001943192        0.2105440006
 C         -0.9412332110        0.6611748467        1.0033953746
 C         -0.5369583288        1.9881780998        0.9881554437
 C         -0.9199590341        2.8155780497        2.0379223918
 C         -1.6974830816        2.3230976413        3.0710971793
 C         -2.0981109865        0.9996795825        3.0826475274
 C         -1.7048614428        0.1574125456        2.0465753488
 N         -2.0481071043       -1.1963941190        2.0732270493
 S         -2.0860151509       -2.2005458059        0.7436374179
 O         -2.6396928952       -3.4304853717        1.2711636976
 O         -0.7786854031       -2.3017467460        0.1466166080
 C         -3.2744550554       -1.4732614077       -0.3686890301
 C         -2.8803287733       -0.8275479778       -1.5217270937
 C         -3.8569026802       -0.2818371634       -2.3430895204
 C         -5.1948083561       -0.3812733221       -1.9986982216
 C         -5.5732692908       -1.0324739786       -0.8335740075
 C         -4.6061900819       -1.5852580970       -0.0121364869
 H         -4.8580894848       -2.1200231135        0.8891495548
 H         -6.6148062573       -1.1119880960       -0.5670625566
 H         -5.9457024748        0.0486266130       -2.6426410105
 H         -3.5549655854        0.2209865797       -3.2477550004
 H         -1.8336613877       -0.7436083067       -1.7713428887
 H         -2.6898019803       -1.4770316029        2.7980112785
 H         -2.6925089857        0.6112694498        3.8951233515
 H         -1.9894185884        2.9746514555        3.8805067315
 H         -0.5859924183        3.8425044766        2.0527574030
 C          0.3096058074        2.5159731575       -0.1447759795
 H          0.8932182933        3.3613234168        0.2552430017
 C         -0.5280367859        3.0456654169       -1.2999817123
 C         -1.9612932787        2.6711044416       -1.5096189382
 C         -1.6112851484        4.0551177098       -1.0579250158
 H         -1.7177497951        4.8702000390       -1.7574687538
 H         -1.8344477711        4.3166626612       -0.0353548572
 H         -2.2943105287        2.5209242428       -2.5243712375
 H         -2.4185632612        1.9984030617       -0.8002813019
 H          0.0679666921        3.1794245413       -2.1969372511
 O          2.8102476710        2.3278375955        1.0668959554
