  62
        -98.93398291
 C         -2.2327745500       -1.2158105607        0.3200284892
 C         -1.8759629799       -0.3187486801       -0.7168491802
 C         -2.6841593897        0.9082534901       -0.7956662392
 C         -3.6841136895        1.1147949898        0.0804590411
 C         -4.6337616492        2.2824664800        0.0874935620
 C         -4.1003345188        3.5280530293        0.8076467628
 C         -3.0049460588        4.2885372296        0.0599072931
 H         -3.3430987189        4.5056172404       -0.9538005167
 H         -2.8705208285        5.2440518292        0.5707397638
 C         -1.6543989889        3.5609088693        0.0087489724
 H         -1.6358806290        2.7767365788        0.7699486919
 H         -0.8522319987        4.2609156790        0.2549126028
 C         -1.3175630693        2.9449422302       -1.3488409381
 H         -0.3465523194        2.4532353199       -1.2641512286
 H         -1.2266820692        3.7373757107       -2.0947213575
 C         -2.3376094696        1.9144785108       -1.8523538686
 H         -3.2378548996        2.4205254512       -2.2008837481
 H         -1.8947523599        1.3722569112       -2.6911501090
 H         -4.9448780986        4.2043452994        0.9583543634
 H         -3.7326747387        3.2330267386        1.7933821125
 H         -4.9012849593        2.5417512107       -0.9372815578
 H         -5.5335330992        1.9447892998        0.6066080919
 O         -3.9738202195        0.2389370691        1.0802563405
 C         -3.2566601398       -0.9377724811        1.2251190796
 O         -3.6190033598       -1.6450738617        2.1886308892
 O         -0.9446869501       -0.5216714898       -1.5336878705
 C         -1.5339713402       -2.5637278110        0.4662637682
 C         -0.0366374002       -2.3818188113        0.3768157581
 C          0.8628223095       -3.1097528209       -0.3915286826
 C          2.2246459096       -2.8616417813       -0.3189823626
 C          2.7317264999       -1.8724570920        0.4992384780
 C          1.8428991302       -1.1121679623        1.2496101487
 C          0.4865571901       -1.3866212519        1.2009583287
 H         -0.1932759596       -0.7982219022        1.8062816792
 N          2.3270652606       -0.0600818629        2.0421491193
 S          3.5913847907        0.8715311072        1.4682800497
 O          4.8430158006        0.2485830467        1.8261437091
 O          3.3706209311        2.1872831468        2.0295778007
 C          3.4576981304        0.9229262984       -0.3127218402
 C          2.2184174403        1.0474576991       -0.9069436199
 C          2.1352241801        1.0691601401       -2.2895318799
 C          3.2892682700        0.9879644003       -3.0527976201
 C          4.5291871701        0.8801966396       -2.4422042404
 C          4.6161444703        0.8396939787       -1.0599823605
 H          5.5568588503        0.7329785081       -0.5443832807
 H          5.4261207500        0.8177585999       -3.0371661106
 H          3.2186481298        1.0042478811       -4.1288627701
 H          1.1640088901        1.1246947806       -2.7547505397
 H          1.3264303405        1.0984799989       -0.3026263997
 H          1.6087000408        0.5109777669        2.4613894698
 H          3.7892528800       -1.6738824123        0.5677517480
 H          2.9008471493       -3.4502121910       -0.9198665431
 H          0.5276758192       -3.8741996204       -1.0667966930
 H         -1.7404641901       -2.8848458317        1.5022065180
 C         -2.2863024006       -3.5442836702       -0.4244657923
 C         -1.9829725809       -3.8187541493       -1.8631698426
 C         -1.8272460410       -4.9090169900       -0.8423724434
 H         -2.5650445611       -5.6982815899       -0.8373136638
 H         -0.8439080610       -5.2445465704       -0.5587788437
 H         -2.8146918310       -3.8791672786       -2.5503793925
 H         -1.1101369609       -3.3529039292       -2.2906753324
 H         -3.3443607105       -3.4780435601       -0.1758019521
