  62
        -98.94330207
 C          1.9120739699        1.3234956889       -0.2112314499
 C          2.2207749700        0.1509315689       -0.9431821799
 C          3.6308243099       -0.2704131611       -0.9121242998
 C          4.5270455899        0.4576516688       -0.2227832396
 C          5.9753790598        0.1028170788       -0.0543547694
 C          6.1936348596       -0.7509490613        1.2028464406
 C          5.2355403596       -1.9365467912        1.3202786104
 H          5.5025280194       -2.4814292613        2.2283492804
 H          4.2181673196       -1.5625972612        1.4579662003
 C          5.2627783497       -2.8963309312        0.1225614704
 H          6.1761899398       -2.7445410612       -0.4537316995
 H          5.2814999296       -3.9224354212        0.4958526804
 C          4.0537019498       -2.7838619311       -0.8080597898
 H          3.1316955898       -2.8453053611       -0.2236433699
 H          4.0660535199       -3.6403678211       -1.4876902598
 C          3.9922122700       -1.5167003911       -1.6700968497
 H          4.9374047601       -1.3857617111       -2.2009557596
 H          3.1985913801       -1.6581432611       -2.4099684499
 H          7.2234559796       -1.1125757513        1.1998266107
 H          6.0588069395       -0.1149221213        2.0806721806
 H          6.3172498499       -0.4355257312       -0.9361168694
 H          6.5476360199        1.0270359188        0.0410455207
 O          4.1968568998        1.5885273488        0.4510789804
 C          2.8885627898        2.0382448389        0.4873697902
 O          2.7233678598        3.0754275988        1.1604850302
 H         -1.0598292001       -0.3511879510       -0.7534948604
 C         -1.0306437602       -0.1370261710        0.3015084296
 C         -0.2991961703        0.9372466990        0.7854336198
 C         -0.2390899504        1.1413326789        2.1623513598
 C         -0.8948346506        0.2917126389        3.0320143897
 C         -1.6337024805       -0.7726215111        2.5453410395
 C         -1.6945608204       -0.9908041210        1.1739942995
 N         -2.4167293303       -2.0818694410        0.6641158494
 S         -3.4491777101       -1.8971490409       -0.6371886208
 O         -4.2542855702       -3.0993145409       -0.6259913509
 O         -2.7108820200       -1.6338482909       -1.8441877006
 C         -4.4594698102       -0.4915650609       -0.2083427209
 C         -5.5938023603       -0.7011015109        0.5518586790
 C         -6.3547834203        0.3907320691        0.9361011889
 C         -5.9648497402        1.6685194291        0.5637716190
 C         -4.8223035601        1.8619198091       -0.1969900108
 C         -4.0596434101        0.7731580691       -0.5895810008
 H         -3.1685313000        0.8856351591       -1.1841965806
 H         -4.5184078600        2.8548926291       -0.4876103108
 H         -6.5556156802        2.5189644691        0.8656156290
 H         -7.2462953104        0.2432134992        1.5240526988
 H         -5.8651891503       -1.7117596409        0.8106208889
 H         -2.8462374804       -2.6603259210        1.3715995293
 H         -2.1474136207       -1.4390742511        3.2216038794
 H         -0.8361754807        0.4610224789        4.0965187297
 H          0.3471417095        1.9675133089        2.5400364399
 C          0.4892261599        1.8564305990       -0.1159736101
 H          0.5741788799        2.8281743189        0.3891710299
 C         -0.1343591899        2.0817852190       -1.4767865702
 C         -1.2629979899        3.0587262591       -1.6081656003
 C          0.0900766602        3.3986523790       -2.1554860701
 H          0.2273083404        3.4094634791       -3.2264276201
 H          0.6851645502        4.1333796690       -1.6324101600
 H         -1.5879809900        3.5672784390       -0.7129472003
 H         -2.0545453398        2.8421987491       -2.3098693204
 H         -0.1477563599        1.1997229890       -2.1043499402
 O          1.3789607900       -0.5186384810       -1.5966087601
