  62
        -98.94117543
 C         -2.4723924875       -1.3641561454       -0.0375757239
 C         -3.2737139821       -0.7614880220        0.9679558925
 C         -4.1933169312        0.2919893426        0.5278064213
 C         -4.2435890601        0.6291698069       -0.7732273996
 C         -5.1529771146        1.6575117903       -1.3892049004
 C         -4.6307087005        3.0971334689       -1.2883323917
 C         -4.6923073690        3.7147913542        0.1091871156
 H         -4.5067102076        4.7846014053       -0.0051356943
 H         -5.6990127856        3.5997252592        0.5120682967
 C         -3.6702177514        3.1410078953        1.1007365248
 H         -2.8857392241        2.6120447216        0.5533755014
 H         -3.1835349556        3.9589553800        1.6369941379
 C         -4.2629896283        2.2004360360        2.1502150459
 H         -4.9471034136        2.7565408426        2.7949785723
 H         -3.4457601147        1.8232716966        2.7704108475
 C         -5.0121934872        0.9950857959        1.5676837646
 H         -5.9670293698        1.3122862726        1.1488838555
 H         -5.2010804136        0.2853926312        2.3767560357
 H         -5.2354212843        3.7105193804       -1.9603409170
 H         -3.6005890857        3.1228222373       -1.6520827228
 H         -5.2445703944        1.3979038171       -2.4461179528
 H         -6.1394723790        1.5948279459       -0.9288272651
 O         -3.4605318354        0.0321664378       -1.7083884865
 C         -2.5458684408       -0.9595886635       -1.3706158502
 O         -1.8896733357       -1.3765111236       -2.3445177825
 O         -3.2320314377       -1.1045846631        2.1793590508
 C         -1.5386070688       -2.4741534359        0.4153279144
 C         -0.1518076682       -1.9465332813        0.6796889779
 C          0.4606316322       -2.1269816744        1.9140243549
 C          1.7300233062       -1.6275770220        2.1496285483
 C          2.4149123864       -0.9448841428        1.1604663930
 C          1.8079450616       -0.7509144343       -0.0737099778
 C          0.5341938781       -1.2489140417       -0.3057406808
 H          0.0641557448       -1.0941270209       -1.2662607034
 N          2.4981307468       -0.0669191425       -1.0915231775
 S          3.1274305401        1.4460894626       -0.7207394098
 O          2.3628096667        2.0954993148        0.3197289690
 O          3.2175166399        2.1440214402       -1.9846149007
 C          4.7714220530        1.0845624033       -0.1394131020
 C          5.6107482202        0.3673047023       -0.9694548754
 C          6.8937637799        0.0767189569       -0.5341020536
 C          7.3145294305        0.5086504429        0.7150773560
 C          6.4615237631        1.2320864630        1.5343866709
 C          5.1760533671        1.5249295622        1.1055065417
 H          4.4753864235        2.0783780277        1.7103816756
 H          6.7905799622        1.5679589932        2.5046161342
 H          8.3134033688        0.2804069349        1.0518446290
 H          7.5599804002       -0.4851953280       -1.1687077537
 H          5.2454242486        0.0537578512       -1.9331357964
 H          1.9857074365       -0.0322237316       -1.9617960156
 H          3.4042761489       -0.5557965509        1.3370540042
 H          2.1927045908       -1.7732666337        3.1136869370
 H         -0.0721909130       -2.6483379587        2.6957260388
 H         -1.9546544444       -2.8011080751        1.3814247888
 C         -1.5559098285       -3.6803514395       -0.5152497506
 C         -0.3846448429       -4.1237814556       -1.3349286835
 C         -0.8031380237       -4.9227562379       -0.1397966335
 H         -1.2747937918       -5.8815052440       -0.2921717119
 H         -0.1742594014       -4.8714239710        0.7362810930
 H         -0.5874491358       -4.5130502197       -2.3211077774
 H          0.5308338191       -3.5572232706       -1.2732501171
 H         -2.5326792879       -3.8228300380       -0.9671338062
