  62
        -98.93907104
 C         -2.6876283143       -1.0680608666       -0.3587225086
 C         -2.4082738057        0.1397675809       -1.0428025879
 C         -3.3708381839        1.2331443086       -0.8368200992
 C         -4.4403644928        1.0393057327       -0.0451705229
 C         -5.4605798012        2.0853142203        0.2962459020
 C         -5.0733226621        2.8416647334        1.5748260322
 C         -3.6293233065        3.3437312835        1.5828891991
 H         -2.9532291649        2.4855332628        1.6014316723
 H         -3.4804086857        3.8884462139        2.5177538849
 C         -3.2654304220        4.2506580078        0.3989522653
 H         -2.7051107600        5.1089516333        0.7755543844
 H         -4.1740830058        4.6355604581       -0.0653467067
 C         -2.3948027961        3.5834891619       -0.6674739996
 H         -1.5300309389        3.1135031680       -0.1919621104
 H         -2.0186848544        4.3632172223       -1.3351009135
 C         -3.0959381128        2.5336216294       -1.5388393889
 H         -2.4275039461        2.2907892450       -2.3698508308
 H         -4.0169008415        2.9513930242       -1.9500285187
 H         -5.2068278390        2.1714949195        2.4272661216
 H         -5.7548778049        3.6855718496        1.6962674413
 H         -5.5541725026        2.7804561709       -0.5357651719
 H         -6.4202121075        1.5903038643        0.4542730988
 O         -4.6880349551       -0.1388247796        0.5808488758
 C         -3.8216851119       -1.2082288945        0.4492607928
 O         -4.1677437138       -2.2241166132        1.0849716896
 H          0.2883130676       -0.5896270015       -0.7416508735
 C          0.4093869947       -1.2167730345        0.1293779039
 C         -0.5775601159       -2.1421663455        0.4380017496
 C         -0.4198189417       -2.9272793229        1.5740711722
 C          0.6979800664       -2.7861327220        2.3778721754
 C          1.6763325084       -1.8576563856        2.0709094892
 C          1.5255144319       -1.0643500598        0.9406477010
 N          2.4932125607       -0.0859463430        0.6296407838
 S          4.1044771719       -0.5914587743        0.5749945034
 O          4.2448727608       -1.7215916077       -0.3177859014
 O          4.5653384899       -0.7975928393        1.9249154258
 C          4.8891634580        0.8495826658       -0.1179073955
 C          5.1283572024        0.9032008096       -1.4777035848
 C          5.7188256333        2.0386029334       -2.0100264175
 C          6.0547501572        3.0961161621       -1.1782647023
 C          5.8081088605        3.0272848699        0.1849348140
 C          5.2191275065        1.8946050176        0.7236880333
 H          5.0167627280        1.7928674158        1.7770366951
 H          6.0730956720        3.8508114940        0.8281968895
 H          6.5144495266        3.9782679011       -1.5951369843
 H          5.9139378806        2.0938939288       -3.0689624060
 H          4.8595081209        0.0540764115       -2.0857042800
 H          2.2575499269        0.3920094037       -0.2309586862
 H          2.5539692002       -1.7432470471        2.6860088432
 H          0.8087467752       -3.4046886685        3.2559840848
 H         -1.1865253387       -3.6447194419        1.8298116699
 C         -1.7963014650       -2.2986302352       -0.4412198552
 H         -2.3960307385       -3.1227549023       -0.0325661182
 C         -1.4083488049       -2.6534336385       -1.8638684822
 C         -0.9610229557       -4.0505622707       -2.1660244976
 C         -2.2912903608       -3.5659074993       -2.6580244781
 H         -2.4143459933       -3.3737263073       -3.7132814356
 H         -3.1817233990       -3.9437898607       -2.1765846178
 H         -0.9490856785       -4.7587863461       -1.3511467051
 H         -0.1664331777       -4.1936456878       -2.8822815190
 H         -0.9269746786       -1.8444901134       -2.3967004563
 O         -1.4133481776        0.3243546756       -1.7948447238
