  62
        -98.93892298
 C         -1.9887990911       -1.4420667114       -0.4039171582
 C         -2.9522718707       -1.3170527494        0.6313946425
 C         -4.1255216814       -0.4841819008        0.3443550913
 C         -4.2301715901        0.1008561880       -0.8622116702
 C         -5.3346843623        1.0306764647       -1.2723519606
 C         -4.9719066539        2.4903146910       -0.9649944193
 C         -4.4558122367        2.7128831279        0.4568896660
 H         -3.4975091247        2.2004399098        0.5725411528
 H         -4.2616275066        3.7820146805        0.5680155905
 C         -5.4163768777        2.2490788553        1.5610975783
 H         -5.4656918686        3.0236587124        2.3292436521
 H         -6.4209642340        2.1332873917        1.1527503895
 C         -5.0011341899        0.9532768265        2.2603444725
 H         -5.6180462251        0.8372998965        3.1553905960
 H         -3.9608241617        1.0302808269        2.5867833913
 C         -5.1511209526       -0.3285509467        1.4315039863
 H         -5.0046333195       -1.1783989204        2.1044397553
 H         -6.1606847550       -0.3849459097        1.0195217788
 H         -5.8549985992        3.1091126677       -1.1348406125
 H         -4.1945378138        2.8082234770       -1.6640759421
 H         -6.2481010652        0.7539849733       -0.7493302771
 H         -5.4941176214        0.9236133454       -2.3466287945
 O         -3.3027074823       -0.0560778939       -1.8382081260
 C         -2.1493244759       -0.8144244089       -1.6399532682
 O         -1.4031030427       -0.8410535234       -2.6340222930
 O         -2.8324903346       -1.8879350258        1.7487573780
 C         -0.7620135037       -2.2677839609       -0.0572029254
 C          0.2154611596       -1.4278710434        0.7268686532
 C          0.7418136837       -1.8953549923        1.9263000978
 C          1.6154910789       -1.1199943563        2.6671345063
 C          1.9982013967        0.1280770082        2.2107662878
 C          1.4826794792        0.6029338293        1.0104354063
 C          0.5884064977       -0.1666964443        0.2805846184
 H          0.1877632599        0.2231466313       -0.6437772391
 N          1.8771376885        1.8605620072        0.4969294255
 S          2.9144784202        1.7882664607       -0.8193374316
 O          3.2855637872        3.1577642538       -1.0973814604
 O          2.2924798025        1.0492410776       -1.8846309449
 C          4.3285592743        0.8963749166       -0.1926203138
 C          4.2891281090       -0.4837106240       -0.1682849822
 C          5.3503398579       -1.1731613073        0.3970512025
 C          6.4245709952       -0.4750761379        0.9273013496
 C          6.4500480268        0.9110492479        0.8936387218
 C          5.3899207723        1.6063143222        0.3342717827
 H          5.3673595145        2.6829910228        0.2826760717
 H          7.2884641149        1.4510237486        1.3032080258
 H          7.2475021962       -1.0156957136        1.3674039707
 H          5.3306882573       -2.2507225102        0.4216843530
 H          3.4404988001       -0.9927297043       -0.5962545608
 H          2.2848451125        2.4670597812        1.1964385034
 H          2.6842579273        0.7372109446        2.7802581555
 H          2.0057412451       -1.4918573255        3.6017265926
 H          0.4412034428       -2.8679928677        2.2864154684
 H         -1.1320901651       -3.0488673200        0.6275112153
 C         -0.1176982158       -2.9830460696       -1.2330677516
 C          1.0582767604       -2.4522227488       -1.9898243167
 C          1.2304463648       -3.6240877163       -1.0733325823
 H          1.3943815406       -4.5979156292       -1.5090478680
 H          1.7498096717       -3.4609435730       -0.1406973974
 H          1.0732343398       -2.6164317245       -3.0567815599
 H          1.4608670464       -1.4898144594       -1.7141546698
 H         -0.8527385090       -3.5254985111       -1.8194533750
