  62
        -98.94541535
 C         -2.5930551797       -0.0484762656       -0.5222847796
 C         -2.5165521689       -0.7794795376        0.6878113761
 C         -2.0831026025       -2.1752916184        0.5628535588
 C         -1.7669129933       -2.6717482064       -0.6466138162
 C         -1.2626016966       -4.0607537994       -0.9283097562
 C          0.2462983790       -4.2193459230       -0.6917061543
 C          0.6732690334       -4.2869522694        0.7756623180
 H          0.0543422923       -5.0142415887        1.3028309560
 H          1.6997281469       -4.6588130773        0.7903691626
 C          0.6310176173       -2.9386534614        1.5084129525
 H          1.5399004249       -2.8234446099        2.1045900716
 H          0.6271355744       -2.1271188913        0.7766602324
 C         -0.5505784756       -2.7660812962        2.4632187596
 H         -0.5179288365       -1.7501742676        2.8653975788
 H         -0.4512651238       -3.4649339062        3.2976441926
 C         -1.9274427085       -2.9745343461        1.8216929895
 H         -2.0934767816       -4.0327638013        1.6208385605
 H         -2.6865499874       -2.6271527334        2.5273806432
 H          0.5579270810       -5.1439370615       -1.1838247615
 H          0.7636906987       -3.3880728443       -1.1781437480
 H         -1.8087591161       -4.7841301088       -0.3218985280
 H         -1.4709001994       -4.2602961100       -1.9816760720
 O         -1.8823833197       -1.9451805072       -1.7910109895
 C         -2.2619065952       -0.6140734933       -1.7523977654
 O         -2.2787923287       -0.0503110368       -2.8684299343
 H         -0.2936057070        0.9093405781       -0.5957798821
 C         -0.4908420464        1.6847278990        0.1296631130
 C         -1.7968141949        2.1165904569        0.3243406113
 C         -2.0279422746        3.1336493336        1.2401794064
 C         -0.9731432188        3.6822320677        1.9512257180
 C          0.3206103873        3.2287877577        1.7737484997
 C          0.5620700733        2.2087086007        0.8578908728
 N          1.8518028334        1.6749392112        0.6987224167
 S          2.2644981393        0.8169692276       -0.6895938294
 O          2.0757938870        1.6442569068       -1.8625888429
 O          1.5937236831       -0.4577694860       -0.6848252260
 C          4.0035051155        0.5764762071       -0.3831650513
 C          4.9199826566        1.4612290489       -0.9190609368
 C          6.2667012923        1.2782148747       -0.6465539881
 C          6.6711381422        0.2209383856        0.1545560469
 C          5.7396262227       -0.6602414710        0.6835772376
 C          4.3918236260       -0.4831262603        0.4144193087
 H          3.6306994618       -1.1451371854        0.7942081423
 H          6.0577258794       -1.4831128358        1.3030722320
 H          7.7195195578        0.0805785854        0.3652669290
 H          6.9934434532        1.9590136162       -1.0594992905
 H          4.5595007607        2.2615252540       -1.5452187001
 H          2.5887353691        2.3014429026        0.9902938237
 H          1.1356319201        3.6475602228        2.3436253298
 H         -1.1644192131        4.4724343677        2.6614182219
 H         -3.0315137862        3.4915763007        1.4025113154
 C         -2.8834110347        1.4411505812       -0.4816894594
 H         -2.8071773104        1.7964661298       -1.5209265457
 C         -4.2801774209        1.7177297779        0.0318037600
 C         -5.0252288995        2.9347818818       -0.4255988101
 C         -5.4368341300        1.5780401430       -0.9100761120
 H         -6.3561633448        1.1516820264       -0.5381269566
 H         -5.2118689798        1.3075320703       -1.9319117646
 H         -5.6677029653        3.4413186759        0.2787341943
 H         -4.5294481684        3.5913737606       -1.1248325463
 H         -4.4203272466        1.3807308139        1.0520743764
 O         -2.7880981365       -0.2924293128        1.8165832467
