  62
        -98.94044810
 C         -1.8227706651        0.0054732147       -0.9706784980
 C         -3.1851003767       -0.1669159889       -1.3251037055
 C         -4.1755609315        0.3889224873       -0.3937519634
 C         -3.7513045699        0.9980599144        0.7282370844
 C         -4.6489838857        1.5676309681        1.7873191401
 C         -4.9588969007        0.5276604455        2.8729286505
 C         -5.4189416686       -0.8221299110        2.3221409184
 H         -4.5924198832       -1.2862004846        1.7789118499
 H         -5.6401121262       -1.4642342803        3.1775528689
 C         -6.6487450787       -0.7487354647        1.4062749356
 H         -7.3406850418       -1.5464055555        1.6847773060
 H         -7.1684635600        0.1978824459        1.5588584356
 C         -6.3427013718       -0.9244734651       -0.0823716618
 H         -5.7409454057       -1.8251225744       -0.2289171132
 H         -7.2891849755       -1.0756614740       -0.6082929035
 C         -5.6263296341        0.2502451130       -0.7603712412
 H         -6.1657463336        1.1772655609       -0.5547518019
 H         -5.6473880988        0.0723793132       -1.8396592801
 H         -4.0555930763        0.3652409244        3.4656714038
 H         -5.7283518632        0.9348548221        3.5314023464
 H         -4.1427209761        2.4182570104        2.2467789287
 H         -5.5723797293        1.9128318310        1.3260877056
 O         -2.4397857657        1.1216231804        1.0491620456
 C         -1.4405366157        0.6210435479        0.2221502646
 O         -0.2911517393        0.7916928233        0.6650804347
 O         -3.5542355190       -0.7622522683       -2.3725161727
 C         -0.7763417642       -0.5601230000       -1.9140345021
 C          0.2632903390       -1.3348025691       -1.1429070875
 C         -0.1613519149       -2.3354641426       -0.2716925574
 C          0.7445116271       -3.0535401537        0.4835418292
 C          2.1021467517       -2.8056200247        0.3736545448
 C          2.5381760583       -1.8235965440       -0.5030189974
 C          1.6237975339       -1.0960739987       -1.2565528895
 H          1.9852414228       -0.3222607636       -1.9157911263
 N          3.9242717485       -1.5872506334       -0.6290513372
 S          4.7385389862       -0.9075863541        0.6671781081
 O          6.1442628493       -1.0086046983        0.3444309352
 O          4.3117719710       -1.5568252440        1.8794522179
 C          4.2637315541        0.8132170201        0.6692363943
 C          2.9626444864        1.1488217998        0.9851684474
 C          2.5861377265        2.4816744079        0.9339658383
 C          3.5092118743        3.4510851572        0.5746321935
 C          4.8138224458        3.0972627485        0.2629751511
 C          5.1954592016        1.7663036902        0.3044227504
 H          6.1963311006        1.4443801397        0.0657833613
 H          5.5307968209        3.8530114790       -0.0153042421
 H          3.2088466408        4.4865430506        0.5360187546
 H          1.5636655407        2.7356048943        1.1645034150
 H          2.2464801040        0.3887298080        1.2528419272
 H          4.1698158381       -1.0821127330       -1.4695260579
 H          2.8229387645       -3.3440089560        0.9666262180
 H          0.3936845040       -3.8162305077        1.1627505804
 H         -1.2214615154       -2.5327479409       -0.1823963662
 H         -1.3349785853       -1.2776238331       -2.5387621474
 C         -0.1805556120        0.4679706333       -2.8657448573
 C         -0.8960896068        1.7468586099       -3.1798043026
 C          0.3696170621        1.7749595609       -2.3794099177
 H          1.2623864330        2.1645687307       -2.8469745212
 H          0.3072038355        1.9758939582       -1.3218315485
 H         -0.8729010824        2.1083375653       -4.1969975249
 H         -1.8289112558        1.9398565611       -2.6701974575
 H          0.3396449507       -0.0009741028       -3.6956215732
