  62
        -98.94357054
 C         -1.8307359032       -0.8259568590        0.8108958209
 C         -2.0791420283       -0.4307535437       -0.5257092377
 C         -3.4901598132       -0.4330879826       -0.9387700627
 C         -4.4344051545       -0.8202792707       -0.0618087338
 C         -5.9104844316       -0.8155685989       -0.3334124261
 C         -6.5469110447        0.5176076739        0.0842584083
 C         -5.8051189368        1.7474010031       -0.4396940226
 H         -6.3603793213        2.6275128496       -0.1079264101
 H         -4.8187108146        1.7954259364        0.0274784789
 C         -5.6438673585        1.7896753058       -1.9656744438
 H         -5.8845238149        2.7960231385       -2.3148952866
 H         -6.3548189367        1.1067204429       -2.4321101364
 C         -4.2329084272        1.4706248401       -2.4636304464
 H         -4.1769890849        1.7416192604       -3.5212769210
 H         -3.5065278746        2.0880630393       -1.9288692683
 C         -3.7987661115        0.0043916779       -2.3429110827
 H         -4.5551437065       -0.6420530130       -2.7924000238
 H         -2.8668047001       -0.1128174711       -2.9033286077
 H         -6.5627979154        0.5668006629        1.1755965990
 H         -7.5788340243        0.5342031715       -0.2710947815
 H         -6.0805291923       -0.9951595521       -1.3930957736
 H         -6.3688506188       -1.6222418628        0.2411444406
 O         -4.1524552628       -1.2177195619        1.2059135657
 C         -2.8500983017       -1.2155748899        1.6784940093
 O         -2.7319733478       -1.5736782917        2.8683643095
 H          2.0880613213       -0.1214304406        0.4096821144
 C          1.4903904695        0.7252863058        0.7013931248
 C          0.2083323527        0.5377601800        1.1924018253
 C         -0.5281351292        1.6557334057        1.5768015371
 C         -0.0016384502        2.9260351582        1.4517082485
 C          1.2771081349        3.1092745590        0.9549953739
 C          2.0262139164        2.0009510276        0.5811992147
 N          3.3141219949        2.1560612980        0.0529019281
 S          4.5161851270        1.0417700150        0.3689609392
 O          4.4230155400        0.5198646861        1.7125801457
 O          5.7446934336        1.7363701973        0.0458460342
 C          4.2634078834       -0.2626117434       -0.8162484457
 C          3.8230311251        0.0520510101       -2.0863198892
 C          3.6622671180       -0.9685615461       -3.0096867173
 C          3.9506341304       -2.2772450045       -2.6536631129
 C          4.3996521792       -2.5758016317       -1.3766582421
 C          4.5588223591       -1.5600692041       -0.4470149819
 H          4.8943621503       -1.7482570914        0.5606680501
 H          4.6236559867       -3.5943910013       -1.1014588212
 H          3.8226585660       -3.0693195518       -3.3745995336
 H          3.3091603160       -0.7404432682       -4.0025097796
 H          3.6012438353        1.0775111769       -2.3302166777
 H          3.6636042348        3.1023684197        0.0303055725
 H          1.6896548315        4.1016799834        0.8547569315
 H         -0.5887304677        3.7828402337        1.7471254640
 H         -1.5257959371        1.5131284855        1.9705606195
 C         -0.4080880032       -0.8322516629        1.3392894052
 H         -0.4807711994       -1.0578669400        2.4137827178
 C          0.3887327118       -1.9297300359        0.6644618004
 C          1.5247313347       -2.5928248288        1.3816633939
 C          0.2427220382       -3.3360984149        1.1594194376
 H          0.2301712452       -4.1384872830        0.4374462472
 H         -0.4115871502       -3.4977755049        2.0039919935
 H          1.7533762354       -2.2532632027        2.3809159956
 H          2.3915424716       -2.8852767708        0.8086571109
 H          0.4762996925       -1.7812605459       -0.4059244044
 O         -1.1734255552       -0.0922245890       -1.3305193921
