  62
        -98.94130431
 C         -2.4968549519       -1.3368788860        0.0178060145
 C         -3.1477763569       -0.5942836711        1.0377796120
 C         -3.9367872951        0.5653382945        0.6054371933
 C         -4.0072159398        0.8568455845       -0.7056784671
 C         -4.7297980659        2.0367149547       -1.2867629754
 C         -3.7994328595        3.2511286846       -1.4135003709
 C         -3.0109300695        3.5627972943       -0.1410958265
 H         -2.3032906690        2.7518665725        0.0510693845
 H         -2.4168336290        4.4581480796       -0.3381789945
 C         -3.8788885044        3.7878554490        1.1051874914
 H         -3.5051431766        4.6660813245        1.6356468673
 H         -4.9060060316        4.0012352080        0.8069417920
 C         -3.8704532613        2.6280609781        2.1028748618
 H         -4.3237167249        2.9778325987        3.0341571041
 H         -2.8379216503        2.3465622039        2.3262605577
 C         -4.6309787018        1.3687965344        1.6684728804
 H         -4.7082031347        0.7103730327        2.5385265082
 H         -5.6396972413        1.6394386276        1.3501124346
 H         -4.4004143900        4.1187532287       -1.6920258054
 H         -3.0851288115        3.0599712735       -2.2180552444
 H         -5.5800649013        2.2822887154       -0.6535230215
 H         -5.0927099888        1.7637105412       -2.2791164660
 O         -3.3796992565        0.1215885261       -1.6564016542
 C         -2.5938355382       -0.9769243056       -1.3263155296
 O         -2.0618106169       -1.5181767078       -2.3147016144
 O         -3.0766406692       -0.8981219975        2.2585222538
 C         -1.6691494631       -2.5276948189        0.4724606064
 C         -0.2344541661       -2.1142715348        0.6794659885
 C          0.4099883085       -2.3237661774        1.8923421447
 C          1.7148274325       -1.9000213621        2.0788501281
 C          2.4010494278       -1.2598109472        1.0625068510
 C          1.7641002412       -1.0429396851       -0.1524926753
 C          0.4594432967       -1.4721881717       -0.3378704016
 H         -0.0318943724       -1.2981317793       -1.2845845677
 N          2.4526971413       -0.3782353460       -1.1902788821
 S          2.8925126571        1.2124644459       -0.8529219570
 O          1.9890219329        1.8151987542        0.1015797131
 O          3.0012732778        1.8661643777       -2.1389068154
 C          4.5169247357        1.0507085304       -0.1428249519
 C          4.7593277979        1.5051398388        1.1385236362
 C          6.0327891264        1.3650378035        1.6685424061
 C          7.0345513599        0.7764301967        0.9119214552
 C          6.7748435967        0.3272554079       -0.3745755654
 C          5.5046609829        0.4652973106       -0.9108512287
 H          5.2600884289        0.1348145765       -1.9064966840
 H          7.5564852648       -0.1296362193       -0.9598162654
 H          8.0238374507        0.6672640138        1.3274280108
 H          6.2365211946        1.7136862263        2.6682187818
 H          3.9468103429        1.9500035909        1.6905682229
 H          1.9482737485       -0.4050603445       -2.0663704333
 H          3.4157380270       -0.9241044608        1.2020391030
 H          2.2016858745       -2.0669817876        3.0273952386
 H         -0.1260703018       -2.8038899181        2.6978283387
 H         -2.0819296014       -2.7896453949        1.4594630522
 C         -1.8243383159       -3.7487233074       -0.4235176179
 C         -0.7212225275       -4.3109078094       -1.2645660350
 C         -1.1699297354       -5.0425691073       -0.0376534164
 H         -1.7269393129       -5.9598211938       -0.1524446857
 H         -0.5123450788       -5.0263773409        0.8184538726
 H         -0.9863337482       -4.7040308056       -2.2342240717
 H          0.2404559459       -3.8230768924       -1.2437499431
 H         -2.8232770805       -3.8150756412       -0.8426761169
