  62
        -98.94209951
 C          2.7871044733        1.0028290575        0.3508800509
 C          2.4021448615        0.3151991356       -0.8290106055
 C          2.8500793158       -1.0811159087       -0.9252182494
 C          3.6399513316       -1.6039158238        0.0288950468
 C          4.1449172091       -3.0195460716        0.0848274922
 C          3.1517087777       -3.9895685942        0.7410328694
 C          1.9163050499       -4.3251432919       -0.0969214113
 H          2.2303847734       -4.6667348433       -1.0836973214
 H          1.4123755670       -5.1606896326        0.3929432687
 C          0.9152083787       -3.1701596156       -0.2513112319
 H         -0.1029443224       -3.5285624588       -0.0753307970
 H          1.1127891828       -2.4090017432        0.5088691742
 C          0.9243115762       -2.5059637999       -1.6285142389
 H          0.6189069832       -3.2339174896       -2.3837189542
 H          0.1790247716       -1.7049313812       -1.6240586352
 C          2.2818904304       -1.9130494722       -2.0341432169
 H          2.9721365346       -2.7096600697       -2.3109386466
 H          2.1267390495       -1.2633136597       -2.8985499946
 H          2.8370162378       -3.5702027081        1.6998138775
 H          3.6873107235       -4.9194057735        0.9449229688
 H          4.3889464830       -3.3667310016       -0.9187679770
 H          5.0582064470       -3.0050023008        0.6832898687
 O          4.0732842959       -0.8779317797        1.0941303930
 C          3.5969061963        0.4062873572        1.3188717306
 O          3.9608840437        0.9021480672        2.4043495873
 H          0.5222866642        0.5128397578        1.5631133671
 C         -0.0009567733        1.2438471403        0.9559770932
 C          0.7117026399        2.3106208330        0.4201657216
 C          0.0289744645        3.2319920141       -0.3607538507
 C         -1.3244079460        3.0727523287       -0.6081644986
 C         -2.0220128095        1.9960721554       -0.0932580349
 C         -1.3477246882        1.0676204904        0.6891898963
 N         -2.0404341979       -0.0465726256        1.2023790113
 S         -2.8279037221       -1.0300829664        0.0846570596
 O         -2.8347464024       -2.3494396621        0.6795588636
 O         -2.2494208728       -0.9171363968       -1.2320947871
 C         -4.4877965286       -0.3856388341        0.0810760390
 C         -5.0356019243        0.1013119199       -1.0891540040
 C         -6.3272945693        0.6044411920       -1.0656742786
 C         -7.0439486562        0.6108150626        0.1211230161
 C         -6.4801379363        0.1153346809        1.2875783161
 C         -5.1897809216       -0.3891443681        1.2705090630
 H         -4.7154714507       -0.7873243574        2.1519309544
 H         -7.0408523269        0.1214970278        2.2083345273
 H         -8.0482197178        1.0038432151        0.1369742517
 H         -6.7674361052        0.9890458715       -1.9716279988
 H         -4.4380192940        0.0795933700       -1.9867777961
 H         -1.4735874620       -0.6172639352        1.8137053346
 H         -3.0703426312        1.8570118758       -0.3022867847
 H         -1.8403668730        3.7926813065       -1.2250419767
 H          0.5608025770        4.0578078515       -0.8036989290
 C          2.1966111554        2.3608702544        0.6968198403
 H          2.3340266974        2.4591589717        1.7870807514
 C          2.8994322871        3.5522519519        0.0662837535
 C          4.3379568321        3.4658678589       -0.3461192020
 C          3.2665495419        3.5881228611       -1.3854731976
 H          3.1729564858        4.5258651753       -1.9136025238
 H          3.0214375282        2.7233195583       -1.9809174784
 H          4.9763156617        4.3162208524       -0.1583674686
 H          4.8348209827        2.5133044194       -0.2305795331
 H          2.5869697213        4.4903377588        0.5146013015
 O          1.7053197485        0.8177110766       -1.7458798660
