  62
        -98.94092947
 C         -1.9929674741       -0.7430014017       -0.3196993177
 C         -3.1490471253       -1.2704131851        0.3138663116
 C         -4.4291835204       -0.6375458962       -0.0274513515
 C         -4.4400550842        0.3981340452       -0.8855616658
 C         -5.6640188934        1.1691063552       -1.2850044167
 C         -5.8906765624        2.3723309513       -0.3592669569
 C         -5.8221112784        2.0285174801        1.1287028249
 H         -4.8024805164        1.7251758076        1.3776082450
 H         -6.0277661177        2.9463126772        1.6838846533
 C         -6.8001824244        0.9319296418        1.5731221495
 H         -7.5873641971        0.8132624877        0.8276232685
 H         -7.2793721393        1.2465924012        2.5026185365
 C         -6.1504098385       -0.4261528270        1.8448456407
 H         -5.3006250495       -0.2968526736        2.5197861236
 H         -6.8821096739       -1.0562322544        2.3574926006
 C         -5.6709448560       -1.1966734315        0.6082104441
 H         -5.4141801421       -2.2106985526        0.9285331146
 H         -6.4809311589       -1.2617540159       -0.1212692316
 H         -6.8653103491        2.8063537901       -0.5900436186
 H         -5.1255072579        3.1224221284       -0.5726690740
 H         -5.5259345560        1.5288664658       -2.3061208751
 H         -6.5281472814        0.5079849538       -1.2570266106
 O         -3.3141901234        0.8928246534       -1.4556723332
 C         -2.0617986383        0.3494517601       -1.1864729976
 O         -1.1336055264        0.9267867828       -1.7811834984
 H          1.3825445819       -0.2875460947       -1.4296752044
 C          1.3235380921        0.1166703989       -0.4312058762
 C          0.3373642286       -0.3322501387        0.4334122936
 C          0.2632217143        0.2254394143        1.7060126602
 C          1.1492079351        1.2109299847        2.1001334438
 C          2.1232072406        1.6666623471        1.2295562355
 C          2.2006936844        1.1213121452       -0.0449767578
 N          3.1802408314        1.5912275608       -0.9408311938
 S          4.7763821918        1.5358986713       -0.4457272355
 O          5.0080425620        2.5529589529        0.5486430744
 O          5.5600185388        1.6349343774       -1.6561139342
 C          4.9541388004       -0.0823273938        0.2816824943
 C          5.1189620205       -1.1625684873       -0.5627190980
 C          5.1776755616       -2.4356035774       -0.0197630568
 C          5.0596131946       -2.6063220673        1.3513622255
 C          4.8938874671       -1.5116844712        2.1854659350
 C          4.8391914454       -0.2352072527        1.6484793766
 H          4.7166945576        0.6411664762        2.2629061478
 H          4.8036921201       -1.6476443271        3.2511172330
 H          5.0987876880       -3.5988363303        1.7719372806
 H          5.3102009495       -3.2888404001       -0.6656025497
 H          5.2123763886       -0.9867376043       -1.6224701929
 H          3.0808021282        1.2174959793       -1.8732422833
 H          2.8176665541        2.4409896802        1.5134231528
 H          1.0779509629        1.6337204800        3.0908904682
 H         -0.5061106810       -0.1193087836        2.3832546641
 C         -0.6614131575       -1.3856710539        0.0309498962
 H         -0.8859855641       -1.9970339277        0.9198855366
 C         -0.1202067812       -2.3429702989       -1.0208560857
 C         -1.0495103028       -3.2329070310       -1.7894255647
 C         -0.3042092271       -2.1409887714       -2.4939114492
 H          0.5074362302       -2.4191264727       -3.1508900318
 H         -0.8507073246       -1.2715090960       -2.8237085021
 H         -2.1095351501       -3.1027950997       -1.6263043126
 H         -0.7566896617       -4.2566229356       -1.9668103729
 H          0.8216269170       -2.7843206575       -0.7084406963
 O         -3.1108589067       -2.2299437980        1.1291167303
