  62
        -98.94442998
 C         -1.5179577372       -1.4355141834        0.5361044079
 C         -1.5835369805       -0.1348127713        1.0977853905
 C         -2.7418354169        0.6802675732        0.7099642066
 C         -3.6557358308        0.1628608088       -0.1311359095
 C         -4.8628338859        0.8930731484       -0.6434016158
 C         -4.5597561725        1.6049503578       -1.9690053803
 C         -3.2841399441        2.4466910872       -1.9365480591
 H         -3.1887092081        2.9299198919       -2.9113160313
 H         -2.4226969745        1.7844946558       -1.8208100195
 C         -3.2577060335        3.5112061491       -0.8311254490
 H         -4.2703109086        3.6945303265       -0.4700426135
 H         -2.8916692794        4.4475273764       -1.2570189615
 C         -2.3479620157        3.1749066086        0.3518663494
 H         -2.2333237869        4.0785726715        0.9553748175
 H         -1.3576871574        2.8951115109       -0.0153410733
 C         -2.8422122738        2.0642633248        1.2870555758
 H         -3.8655830159        2.2752188219        1.6041975511
 H         -2.1991563348        2.0657849021        2.1717462316
 H         -5.4111684819        2.2391556500       -2.2229891646
 H         -4.4532376434        0.8497275349       -2.7512259278
 H         -5.6604934462        0.1661259157       -0.8057379164
 H         -5.1888492849        1.6144685321        0.1032202791
 O         -3.5557408392       -1.0840731317       -0.6555856255
 C         -2.4752988912       -1.9052338839       -0.3632193633
 O         -2.5030653013       -3.0013723146       -0.9537241109
 H          1.3590761351       -0.3401908931        0.2538819191
 C          1.4206905807       -1.1433230377       -0.4657961867
 C          0.6279025655       -2.2716578334       -0.2927783316
 C          0.6995142059       -3.2907918897       -1.2340354732
 C          1.5473228216       -3.1744080669       -2.3216326257
 C          2.3500556032       -2.0590462645       -2.4796571285
 C          2.2862645754       -1.0341940961       -1.5419748764
 N          3.0788912595        0.1174518272       -1.6686753042
 S          3.8372665202        0.7306698273       -0.3035510197
 O          4.9672883877        1.4716023609       -0.8256716790
 O          4.1517012740       -0.3187228624        0.6381816799
 C          2.6821539061        1.8847172748        0.4005875507
 C          2.1896525165        2.8915154221       -0.4062137054
 C          1.3304297988        3.8272937267        0.1451168135
 C          0.9830063146        3.7420097512        1.4853813072
 C          1.4835719835        2.7241096943        2.2801417058
 C          2.3444745578        1.7857714491        1.7347184067
 H          2.7508131726        0.9737168649        2.3167915015
 H          1.2017934478        2.6494738152        3.3177590759
 H          0.3131123342        4.4713502534        1.9126570532
 H          0.9320678025        4.6188324769       -0.4695145367
 H          2.4869488589        2.9258781546       -1.4413524028
 H          3.7039805978        0.1125491322       -2.4620349163
 H          3.0195351638       -1.9777758395       -3.3228951323
 H          1.5909191954       -3.9686504617       -3.0517160952
 H          0.0763363328       -4.1629711136       -1.1249572136
 C         -0.3136731959       -2.2953576896        0.8859964791
 H          0.1830219258       -1.7733703952        1.7158850633
 C         -0.6883158383       -3.6868953089        1.3462432190
 C          0.3438743230       -4.5231422386        2.0400607560
 C         -0.8108548322       -3.9632610951        2.8135495755
 H         -1.5845036658       -4.6387116159        3.1466923213
 H         -0.6209155302       -3.1470644137        3.4952428706
 H          1.3187224630       -4.0837540332        2.1921857810
 H          0.3663588358       -5.5842274852        1.8442576142
 H         -1.3890335739       -4.1866105588        0.6895728386
 O         -0.7163731005        0.3197772801        1.8902617476
