  62
        -98.94054435
 C          2.3722169800        0.7705960141       -0.1120127393
 C          3.5502982065        1.0615794181        0.6165093678
 C          4.8013958270        0.5676040328        0.0313914589
 C          4.7739959725       -0.0934813264       -1.1403852603
 C          5.9679723603       -0.6392229921       -1.8758820189
 C          6.4207667370       -2.0229747639       -1.3898005436
 C          7.1115602043       -2.0391469648       -0.0256142554
 H          7.9188107427       -1.3061820981       -0.0197774572
 H          7.5655136455       -3.0251030151        0.0919045480
 C          6.1732819156       -1.7836119615        1.1621716932
 H          6.3748179611       -2.5134038359        1.9496006449
 H          5.1378298178       -1.9317148383        0.8464806263
 C          6.3061737286       -0.3947646314        1.7871544090
 H          7.3012044369       -0.2826182475        2.2233160641
 H          5.5735743881       -0.3099533721        2.5939467275
 C          6.0682672533        0.7630365320        0.8086250130
 H          6.9174552774        0.8661863044        0.1336611332
 H          5.9646036324        1.6848409942        1.3861636499
 H          7.1196859868       -2.4159620356       -2.1317046774
 H          5.5525701156       -2.6856625882       -1.3670130942
 H          6.7977344285        0.0640505170       -1.8008649539
 H          5.6746057474       -0.7216193474       -2.9245699295
 O          3.6213249069       -0.3332687872       -1.8211762246
 C          2.3928245161        0.0695332411       -1.3175257192
 O          1.4194633559       -0.2472573695       -2.0275375466
 O          3.5547587118        1.6992507367        1.7038112033
 C          1.0359149527        1.2297505745        0.4400523114
 C          0.1236739405        0.0484756752        0.6613663862
 C          0.6088651600       -1.0568139256        1.3571252034
 C         -0.1945343414       -2.1559446655        1.5872983802
 C         -1.5058241645       -2.1717272565        1.1445529891
 C         -2.0014078496       -1.0735586591        0.4531891213
 C         -1.1875496006        0.0262278253        0.2154820765
 H         -1.6002461768        0.8622326691       -0.3234334340
 N         -3.3212488685       -1.0648124624       -0.0267207140
 S         -4.1695077636        0.3953235982       -0.0135958186
 O         -3.8404462892        1.1455263720       -1.1991363906
 O         -3.9681556260        1.0722609606        1.2478307463
 C         -5.8444937498       -0.2069601587       -0.1306004815
 C         -6.6030561656       -0.3317293670        1.0180419646
 C         -7.8937900128       -0.8271120047        0.9186121645
 C         -8.4001958732       -1.1901705588       -0.3202549552
 C         -7.6270790104       -1.0587218159       -1.4644321723
 C         -6.3363857673       -0.5627106326       -1.3724329654
 H         -5.7021556916       -0.4343832943       -2.2341949517
 H         -8.0250985735       -1.3394933184       -2.4261947177
 H         -9.4047878258       -1.5754296128       -0.3953037981
 H         -8.4984994774       -0.9270974170        1.8055203930
 H         -6.1704720596       -0.0287245109        1.9579749284
 H         -3.8792319654       -1.8219947996        0.3438887510
 H         -2.1354902819       -3.0294092689        1.3265139227
 H          0.1993402724       -3.0062076631        2.1238573104
 H          1.6304364809       -1.0407260690        1.7128810000
 H          1.2607954887        1.6738279552        1.4220917052
 C          0.4346064444        2.2988311939       -0.4471895165
 C         -0.5119068127        3.3101262416        0.1247898110
 C          0.8709241187        3.7221309223       -0.2794887186
 H          0.9910766262        4.3319759964       -1.1622200397
 H          1.5899073083        3.9313117731        0.4991164015
 H         -1.3486846341        3.6293049361       -0.4790772261
 H         -0.7387198975        3.2421904177        1.1784237786
 H          0.2518638996        1.9469638729       -1.4571402744
