  62
        -98.94948008
 C         -1.1031876114        1.7159873477       -0.1211494720
 C         -1.7128580993        0.9175122748       -1.1175419752
 C         -2.8400639165        0.0884432265       -0.6771405735
 C         -3.2202260679        0.1129375691        0.6132511388
 C         -4.3505539684       -0.6753683334        1.2169963969
 C         -3.9731208686       -2.1179836211        1.5814803694
 C         -3.8425584152       -3.0761117569        0.3966815538
 H         -3.8204592161       -4.0880713896        0.8060892686
 H         -4.7286167157       -2.9976682051       -0.2349965628
 C         -2.5798509980       -2.8644771306       -0.4498216586
 H         -1.8465031152       -2.2992824847        0.1316596570
 H         -2.1218740729       -3.8334469592       -0.6658342498
 C         -2.8243168099       -2.1715672189       -1.7906757910
 H         -1.8606260133       -2.0409672654       -2.2885904327
 H         -3.4423726192       -2.8141185272       -2.4223307840
 C         -3.5019890805       -0.7990185942       -1.6888546917
 H         -4.5576849715       -0.9212305006       -1.4467356567
 H         -3.4209520628       -0.3064169275       -2.6614046649
 H         -3.0322496250       -2.1046813273        2.1381922584
 H         -4.7502281481       -2.5003508662        2.2477625622
 H         -4.6391740317       -0.1526526389        2.1315657141
 H         -5.2024475693       -0.6810146493        0.5358483763
 O         -2.6151522145        0.9005205453        1.5410628684
 C         -1.5360220259        1.7066543276        1.2056814838
 O         -1.0686099052        2.3590951853        2.1587695942
 O         -1.3333282552        0.8987390547       -2.3201034920
 C          0.0921393554        2.5666948330       -0.4985775827
 C          1.3463442213        2.1368690006        0.2276246954
 C          2.4455688476        2.9791674938        0.3624510235
 C          3.5911897173        2.5391976482        1.0014608440
 C          3.6777211996        1.2536294904        1.5063229827
 C          2.5852024199        0.4044258749        1.3777085696
 C          1.4389574967        0.8526660670        0.7405289972
 H          0.5904408866        0.1917915995        0.6798278205
 N          2.6134895041       -0.9004783413        1.8862037238
 S          1.7209281994       -2.1229568169        1.1835447723
 O          0.3141950849       -1.9424412358        1.4408981813
 O          2.3095278295       -3.3335856010        1.7156315459
 C          2.0745150916       -2.0023121743       -0.5599638587
 C          3.3428795139       -2.3521510211       -0.9826837137
 C          3.6651491754       -2.2170325855       -2.3227341550
 C          2.7223381730       -1.7263759380       -3.2143480432
 C          1.4529961825       -1.3840510796       -2.7764698171
 C          1.1239820056       -1.5263759713       -1.4379285754
 H          0.1427749606       -1.2657910145       -1.0748194176
 H          0.7129553727       -0.9896738044       -3.4553667189
 H          2.9759916054       -1.6112249138       -4.2562886954
 H          4.6497685946       -2.4884206162       -2.6678067411
 H          4.0451963019       -2.7365719639       -0.2610729292
 H          3.5069957096       -1.2184263728        2.2290334892
 H          4.5720555881        0.9139062213        2.0052907508
 H          4.4335149625        3.2060929559        1.1048675937
 H          2.3991417181        3.9831057585       -0.0272753422
 H          0.2498419894        2.3844205508       -1.5733692930
 C         -0.2115734410        4.0398003157       -0.2985108542
 C          0.2985027030        5.0663306781       -1.2642947907
 C         -1.1581442614        4.7172995986       -1.2427498312
 H         -1.8603864007        5.4337493889       -0.8438993350
 H         -1.5541055868        4.1242425057       -2.0543774661
 H          0.5983073502        6.0297206820       -0.8800209732
 H          0.8831459962        4.7210099630       -2.1036857950
 H         -0.2755195032        4.3093080426        0.7496675860
