  62
        -98.94754023
 C         -1.3523836101       -1.6172858348       -0.5069714640
 C         -1.1986656507       -0.3085685412       -1.0293816396
 C         -2.3792661154        0.5650426848       -0.9307185228
 C         -3.5149250054        0.0944175031       -0.3870107452
 C         -4.7763263385        0.8855782626       -0.1975314639
 C         -4.8173271053        1.5522528784        1.1838059307
 C         -3.5443367751        2.3219989037        1.5364224454
 H         -3.7042565350        2.7879975436        2.5115412555
 H         -2.7142773547        1.6202174954        1.6528073786
 C         -3.1486032984        3.3969755743        0.5151246053
 H         -4.0047489590        3.6483383892       -0.1128105986
 H         -2.8638594835        4.3022663246        1.0558205395
 C         -1.9588545466        3.0149622771       -0.3679645135
 H         -1.1466831989        2.6483251004        0.2665132228
 H         -1.6083270257        3.9213490498       -0.8711182730
 C         -2.2410398192        1.9671757797       -1.4531840782
 H         -3.1266368124        2.2569430604       -2.0232395181
 H         -1.3830095942        1.9494325756       -2.1315748575
 H         -5.6729916163        2.2294931955        1.2152367605
 H         -4.9684620933        0.7776061302        1.9391409908
 H         -4.8461807868        1.6399642273       -0.9786847017
 H         -5.6240466519        0.2037490368       -0.2861181115
 O         -3.6323131301       -1.1707573430        0.0905608411
 C         -2.5571933995       -2.0408998354        0.0623354195
 O         -2.7992379967       -3.1619305150        0.5557875683
 H          1.2506621071       -0.4597111330        0.0233360591
 C          1.3711243870       -1.2063031790        0.7901430701
 C          0.6780732715       -2.4038704977        0.6913322689
 C          0.8333380569       -3.3515431985        1.6961427190
 C          1.6573072208       -3.0972189727        2.7785383873
 C          2.3274665584       -1.8917451854        2.8861906225
 C          2.1762334719       -0.9375774980        1.8861332797
 N          2.8463703083        0.2919801550        1.9465040263
 S          2.1151308700        1.6687717300        1.3309818828
 O          2.8263502234        2.7614250719        1.9673975890
 O          0.6871533695        1.6554887402        1.5509562849
 C          2.5176316812        1.6838043355       -0.4028977369
 C          1.7851791297        2.5101038585       -1.2295113083
 C          2.1068614849        2.5702593818       -2.5754052658
 C          3.1538192036        1.8089928415       -3.0689834735
 C          3.8849469658        0.9895594865       -2.2235863236
 C          3.5692597975        0.9257964504       -0.8759145620
 H          4.1120934470        0.2884150759       -0.1976328163
 H          4.6966354527        0.3941490147       -2.6103607613
 H          3.3975531524        1.8512059867       -4.1190951195
 H          1.5339543722        3.2040967527       -3.2335204183
 H          0.9697716040        3.0770284489       -0.8108752590
 H          3.3443145962        0.4774846248        2.8044734129
 H          2.9575908405       -1.6864413072        3.7383023406
 H          1.7696450312       -3.8401996275        3.5537091997
 H          0.2885966143       -4.2823758823        1.6339002035
 C         -0.2354976783       -2.6515676049       -0.4848871401
 H         -0.7304834452       -3.6195717932       -0.3276530598
 C          0.5544476463       -2.7201088249       -1.7775780433
 C          1.3239670459       -3.9668467888       -2.0900310931
 C          0.0907994129       -3.6305243129       -2.8727173135
 H          0.1986813958       -3.3013335244       -3.8951209438
 H         -0.8019803387       -4.2126469232       -2.6943348451
 H          1.2675529220       -4.7806560673       -1.3828883492
 H          2.2826392104       -3.8710068871       -2.5756508024
 H          0.9868836120       -1.7720880431       -2.0679444970
 O         -0.1483223569        0.1295937659       -1.5685384747
