  62
        -98.93908840
 C         -2.4760849524       -1.0205992112        0.3754579790
 C         -2.7219500275        0.1604526135        1.1254088337
 C         -4.0327595160        0.7908343597        0.9412760569
 C         -4.9326785534        0.2236447302        0.1180414102
 C         -6.3240700389        0.7252022975       -0.1578006738
 C         -6.3920564252        1.8160996159       -1.2352453525
 C         -5.8604583791        3.1850650280       -0.8090214606
 H         -6.1674811027        3.9002749031       -1.5746221771
 H         -6.3362877457        3.4838377720        0.1254559550
 C         -4.3343987600        3.2524929157       -0.6560393146
 H         -3.8777403062        2.4001538119       -1.1647322943
 H         -3.9584321504        4.1543007258       -1.1444759965
 C         -3.8420415802        3.2840833530        0.7910517435
 H         -4.1808078897        4.2033079428        1.2742343359
 H         -2.7487971896        3.2918406684        0.7810048530
 C         -4.2979518276        2.0900779720        1.6399200951
 H         -3.7234024394        2.0905621536        2.5695639597
 H         -5.3565545611        2.1825071481        1.8821471938
 H         -7.4411641022        1.9295972695       -1.5176649314
 H         -5.8455581225        1.4713850362       -2.1160094213
 H         -6.7688766466        1.0960082422        0.7660311790
 H         -6.9014943422       -0.1354773670       -0.5018192777
 O         -4.6724257168       -0.9216035435       -0.5620445943
 C         -3.4420498180       -1.5588838799       -0.4755847888
 O         -3.3656258407       -2.5752117470       -1.1935956961
 O         -1.8839886775        0.6598724906        1.9244717220
 C         -1.1113542968       -1.6627689309        0.5516397195
 C         -0.1651167209       -1.2985392579       -0.5682016531
 C         -0.3961139853       -1.7017227825       -1.8797256152
 C          0.5069606354       -1.3831236788       -2.8771009018
 C          1.6622182524       -0.6787209419       -2.5866718288
 C          1.8974161838       -0.2638129501       -1.2813091010
 C          0.9797293500       -0.5681279870       -0.2852958871
 H          1.1711549642       -0.2299067419        0.7229583109
 N          3.0484173816        0.4713679013       -0.9567316299
 S          3.7686639854        0.1994345668        0.5467884991
 O          3.7751578049       -1.2155402976        0.8417604082
 O          3.1429517568        1.0536300904        1.5247190177
 C          5.4266277594        0.7700598356        0.2219971600
 C          6.4019667900       -0.1473406148       -0.1208272911
 C          7.6808961125        0.3072757544       -0.4015821703
 C          7.9604023014        1.6641496670       -0.3385535872
 C          6.9713434917        2.5727488592        0.0082826522
 C          5.6908317405        2.1249902319        0.2916988191
 H          4.8932496235        2.7919234208        0.5753190989
 H          7.1930906662        3.6265242570        0.0599844602
 H          8.9561858837        2.0156728410       -0.5577340894
 H          8.4527497129       -0.3968761700       -0.6673816894
 H          6.1402122081       -1.1928939774       -0.1485001000
 H          3.7282708660        0.4905682517       -1.7045702468
 H          2.3726910248       -0.4451514007       -3.3651522686
 H          0.3156923863       -1.6997905948       -3.8914284557
 H         -1.2917838319       -2.2588909516       -2.1069353238
 H         -0.7063231671       -1.2230903716        1.4741484648
 C         -1.1589429387       -3.1692688889        0.7242320945
 C          0.0460496617       -3.8645149695        1.2811503141
 C         -1.2019398930       -3.7511101853        2.1034052948
 H         -1.7931689726       -4.6391194906        2.2694357185
 H         -1.2022895490       -3.0633576151        2.9368083003
 H          0.3118875629       -4.8313922762        0.8820932786
 H          0.8960098628       -3.2538272887        1.5509207234
 H         -1.7209926642       -3.6750834146       -0.0497940018
