  62
        -98.94085976
 C          1.0736900483        1.5697840616        0.1948554844
 C          1.3525641827        0.5369950580       -0.7281957143
 C          2.4044172362       -0.4314345561       -0.3528246115
 C          2.9788704414       -0.3365604608        0.8599995317
 C          4.0804417097       -1.1760122715        1.4523709291
 C          5.4613090442       -0.8320118643        0.8754004687
 C          5.5037724046       -0.7226358655       -0.6459255105
 H          6.5141754904       -0.4150149510       -0.9279939379
 H          4.8237892556        0.0681334802       -0.9670491195
 C          5.1792049641       -2.0108953212       -1.3995569253
 H          5.8560434542       -2.8009773492       -1.0672890785
 H          5.3836060702       -1.8243810837       -2.4569581031
 C          3.7376570757       -2.5154925856       -1.2805324050
 H          3.5812643018       -3.0537975686       -0.3498209398
 H          3.5809095437       -3.2385573016       -2.0860168294
 C          2.6739017940       -1.4357180342       -1.4468676036
 H          1.7085083695       -1.9171818732       -1.6409182016
 H          2.8913336510       -0.8553567310       -2.3509589241
 H          6.1717026379       -1.5907378634        1.2086201837
 H          5.7754333348        0.1289683320        1.2903374232
 H          4.0900408546       -0.9665589262        2.5243924967
 H          3.8702663388       -2.2330175745        1.3212171326
 O          2.6216525534        0.6310541728        1.7520090585
 C          1.7004965789        1.6074867709        1.4445483865
 O          1.5178795013        2.4453005142        2.3504881236
 H         -1.2943224101        0.8041035071       -1.4190939599
 C         -1.8851951115        1.2381566638       -0.6260248839
 C         -1.3304237258        2.2336432349        0.1661161905
 C         -2.0942228619        2.7616517967        1.2001454345
 C         -3.3811812538        2.3060965477        1.4324161307
 C         -3.9285125987        1.3083570175        0.6449747704
 C         -3.1666063113        0.7685654697       -0.3827639317
 N         -3.6942653895       -0.2955204980       -1.1534196932
 S         -3.7955283064       -1.7538489674       -0.3364131200
 O         -4.1782480394       -2.7376888483       -1.3227087521
 O         -4.6880919865       -1.5896600211        0.7823862799
 C         -2.1452956403       -2.0970815214        0.2528161167
 C         -1.3737012866       -3.0241462406       -0.4179681367
 C         -0.0876910808       -3.2775032959        0.0304286571
 C          0.4097246449       -2.5849003505        1.1232041777
 C         -0.3703169579       -1.6429743593        1.7747302077
 C         -1.6640706646       -1.3993936733        1.3433436935
 H         -2.3006217616       -0.6874355305        1.8433253224
 H          0.0259992629       -1.0922914980        2.6140466188
 H          1.4110152946       -2.7772414659        1.4733072187
 H          0.5227758542       -4.0112551880       -0.4714100828
 H         -1.7994847820       -3.5367082952       -1.2657931852
 H         -3.1761569947       -0.4438191986       -2.0095297793
 H         -4.9167835310        0.9198417417        0.8291355930
 H         -3.9620723483        2.7275535170        2.2387994624
 H         -1.6657812046        3.5227438622        1.8361015013
 C          0.0859044997        2.6968881621       -0.0706323456
 H          0.3140593814        3.4692154890        0.6758802149
 C          0.2398427687        3.3054825319       -1.4511698431
 C         -0.2767149441        4.6900345091       -1.6952111270
 C          1.2000331312        4.4373519833       -1.6507444788
 H          1.7607721989        4.4805380288       -2.5724172908
 H          1.7514440211        4.7842739749       -0.7887079665
 H         -0.7264596902        5.2104145248       -0.8630965964
 H         -0.7330123763        4.9091974636       -2.6483064320
 H          0.1499464310        2.5852137678       -2.2532439389
 O          0.7762144287        0.4030984665       -1.8421364319
