  62
        -98.93758482
 C         -1.1527372204       -0.8856740471        0.6610272545
 C         -1.8994713230       -0.6532186294       -0.5180321754
 C         -2.8769855055        0.4520189931       -0.4715000715
 C         -2.9610121390        1.2217219026        0.6283533765
 C         -3.8098150075        2.4381104470        0.9352492485
 C         -5.0116348267        2.7940170042        0.0640408103
 C         -6.1697855597        1.7991906404        0.1332623018
 H         -6.6229550344        1.8627752900        1.1257433815
 H         -6.9232964462        2.1024741776       -0.5967794622
 C         -5.7993306467        0.3387056561       -0.1120866261
 H         -5.1240733763       -0.0045585194        0.6743376545
 H         -6.7136348962       -0.2555773253       -0.0335831429
 C         -5.1687151956        0.0434947813       -1.4716725821
 H         -5.8145038424        0.4219293320       -2.2662689711
 H         -5.1098114904       -1.0430309591       -1.5776058938
 C         -3.7517629945        0.6060032802       -1.6821683808
 H         -3.2725274605        0.0309490515       -2.4801599807
 H         -3.7796162219        1.6444987811       -2.0044911288
 H         -5.3814689013        3.7576642606        0.4251910023
 H         -4.6980978271        2.9444640279       -0.9649275858
 H         -4.1425846855        2.3153904444        1.9711400693
 H         -3.1163049515        3.2870394412        0.9329906284
 O         -2.1571328044        1.0120048048        1.7123391380
 C         -1.2396218136       -0.0217036906        1.7530010882
 O         -0.5619389623       -0.0611413033        2.8005166186
 H          0.9564653415        0.2424677424       -0.2126847842
 C          1.3146045576       -0.6142771801       -0.7622249363
 C          0.8339874650       -1.8767716385       -0.4404441461
 C          1.2696867411       -2.9606695011       -1.1906196401
 C          2.1585523508       -2.7717535494       -2.2356971995
 C          2.6453464140       -1.5142067447       -2.5421640176
 C          2.2108706357       -0.4219647619       -1.7987794038
 N          2.6652214407        0.8753490347       -2.0750012209
 S          2.7946183239        2.0036212268       -0.8525506642
 O          1.4917162063        2.4846928772       -0.4629562860
 O          3.6974240645        3.0003157548       -1.3888932417
 C          3.5880358434        1.1440127108        0.4952066819
 C          4.8974935145        0.7434519178        0.3084389130
 C          5.5372514033        0.0424628300        1.3167528018
 C          4.8583118013       -0.2512338908        2.4900221441
 C          3.5473951601        0.1623682743        2.6653067338
 C          2.9035403721        0.8683904908        1.6608008807
 H          1.8816858915        1.1964209526        1.7759389066
 H          3.0095023865       -0.0627980397        3.5726993859
 H          5.3526706042       -0.8024731996        3.2742019574
 H          6.5589319360       -0.2751334580        1.1852938014
 H          5.3951821738        1.0003061551       -0.6124226322
 H          3.4141279445        0.9416467111       -2.7474599996
 H          3.3402285260       -1.3727548842       -3.3554214247
 H          2.4822590233       -3.6207492251       -2.8184127573
 H          0.9008390961       -3.9494251061       -0.9732999604
 C         -0.0995689164       -1.9767156686        0.7425967090
 H          0.4926298484       -1.7191491733        1.6375508443
 C         -0.6443373765       -3.3781289741        0.9786718701
 C         -2.0298659363       -3.5970367965        1.5077113912
 C         -1.6936183896       -3.9918990212        0.1027570528
 H         -1.6167407421       -5.0447728956       -0.1270842363
 H         -2.0764339970       -3.3909387186       -0.7061377495
 H         -2.6519479499       -2.7259880352        1.6573125670
 H         -2.1816549327       -4.3733739351        2.2428985211
 H          0.1192835558       -4.0487541780        1.3604924688
 O         -1.7646243901       -1.3230818263       -1.5743599138
