  62
        -98.93862905
 C         -1.4646134581       -0.8439352932       -0.5420295042
 C         -2.6052886176       -0.9235993139        0.2972796398
 C         -3.2935054874        0.3363293229        0.6174591252
 C         -2.8089808833        1.4894184206        0.1262990608
 C         -3.3024064005        2.8960411806        0.3584618911
 C         -4.8189289105        3.1281508999        0.3494210015
 C         -5.6033456378        2.2372802543       -0.6250100896
 H         -6.2456986116        2.8672363731       -1.2430219386
 H         -4.9139981723        1.7186154294       -1.2933470235
 C         -6.4916715440        1.2135002664        0.0856024178
 H         -7.2692768506        0.8824962565       -0.6069018399
 H         -6.9887839355        1.7040759471        0.9252428004
 C         -5.7741915284       -0.0374339765        0.5912478845
 H         -5.4638041142       -0.6548202560       -0.2559414946
 H         -6.4904578386       -0.6251320584        1.1704192395
 C         -4.5312188401        0.2168403233        1.4599616351
 H         -4.6670157552        1.0856667574        2.0997770284
 H         -4.3784677466       -0.6605985109        2.0944165912
 H         -5.2144030218        2.9910130553        1.3548295711
 H         -4.9747309199        4.1770915416        0.0914251776
 H         -2.8891036869        3.2432704872        1.3104247625
 H         -2.8354885310        3.4938136302       -0.4283485594
 O         -1.7119897857        1.5246619080       -0.6768755056
 C         -1.0067550984        0.3820623014       -1.0207168093
 O         -0.0286292428        0.6144471655       -1.7583936560
 O         -3.0323815692       -2.0136801623        0.7656886516
 C         -0.7464354866       -2.1528081678       -0.8265671504
 C          0.3264727349       -2.3815988803        0.2129338978
 C          0.3128614205       -3.5195525018        1.0097538805
 C          1.2717777554       -3.7003966694        1.9906922041
 C          2.2412243309       -2.7396318271        2.2084375113
 C          2.2644046652       -1.5956503440        1.4155679897
 C          1.3279626887       -1.4393443895        0.4051975626
 H          1.3492179305       -0.5532734563       -0.2062826142
 N          3.2394861125       -0.6127362654        1.6269795451
 S          2.9446107740        1.0298589617        1.4407626358
 O          3.7100818256        1.6493708942        2.5055380342
 O          1.5324612447        1.3242919505        1.4214204194
 C          3.7417570001        1.4129158162       -0.1049568984
 C          3.0141531383        1.5716589872       -1.2658650294
 C          3.6921841006        1.8490341381       -2.4443859821
 C          5.0730126397        1.9628914783       -2.4432883088
 C          5.7895508353        1.8027749536       -1.2662902078
 C          5.1200510853        1.5246955303       -0.0869399481
 H          5.6344998691        1.4076030790        0.8523940515
 H          6.8637814376        1.8940352091       -1.2657774173
 H          5.5919284566        2.1790945446       -3.3639194941
 H          3.1281233683        1.9712406244       -3.3554540928
 H          1.9390556361        1.4754730389       -1.2509881155
 H          3.8376529564       -0.7829334032        2.4221505924
 H          2.9740765802       -2.8658091289        2.9910629016
 H          1.2525866746       -4.5880655358        2.6046605960
 H         -0.4679814389       -4.2527815331        0.8719740161
 H         -1.5069509224       -2.9348608477       -0.6930643799
 C         -0.1789017060       -2.2718385034       -2.2260574934
 C          0.0531972747       -3.6364370667       -2.7999745646
 C         -1.0534022298       -2.7773707862       -3.3324105371
 H         -0.9458128627       -2.3392811053       -4.3130895965
 H         -2.0706107343       -3.0432351540       -3.0834147294
 H          0.9248260750       -3.7926938757       -3.4164133442
 H         -0.2150969943       -4.4877660781       -2.1929749865
 H          0.5319281147       -1.4942668745       -2.4713084483
