  62
        -98.93786799
 C         -1.4761913337       -1.5203070468        0.4203014536
 C         -1.5982339949       -0.1974429850        0.9170369536
 C         -2.8790881694        0.4939703535        0.6893576481
 C         -3.8684092377       -0.1555502602        0.0483531636
 C         -5.2928854733        0.2498509952       -0.2701731926
 C         -5.7518040986        1.6920479832       -0.0758915624
 C         -5.1506905771        2.6879412266       -1.0686417495
 H         -5.6044477559        2.5135041927       -2.0475690077
 H         -5.4223931897        3.6971954909       -0.7523067439
 C         -3.6364202249        2.6094088271       -1.2460292026
 H         -3.3532563813        3.3275942977       -2.0201974224
 H         -3.3614015447        1.6181346806       -1.6118903240
 C         -2.8116386048        2.9242081474       -0.0003135598
 H         -1.7602458339        2.9380532780       -0.2988364526
 H         -3.0738497185        3.9166939368        0.3715192832
 C         -2.9457160977        1.9199485869        1.1549803948
 H         -2.0915723611        2.0596562394        1.8239342070
 H         -3.8484150928        2.1002251594        1.7334555254
 H         -5.5690387603        2.0071379058        0.9472505102
 H         -6.8358847556        1.6976039144       -0.2183030926
 H         -5.4663084299       -0.0461343523       -1.3097828708
 H         -5.9257395542       -0.4015425172        0.3427168481
 O         -3.7047483925       -1.4291128634       -0.4122680321
 C         -2.5141736720       -2.1277156655       -0.2830007420
 O         -2.5386778007       -3.2472661294       -0.8311036778
 H          2.1967120494       -0.8493874681        0.6759899391
 C          1.9459739200       -1.1974148025       -0.3139274490
 C          0.7831900915       -1.9257558619       -0.5150576819
 C          0.4809478713       -2.3731648751       -1.7971230431
 C          1.3299316950       -2.0900349921       -2.8508823464
 C          2.4866540274       -1.3569140590       -2.6498006469
 C          2.7991577078       -0.9096206900       -1.3707896860
 N          3.9757587606       -0.1924170972       -1.1412590879
 S          4.2300018039        0.7675005167        0.1923686168
 O          5.4125225633        1.5276680787       -0.1540463395
 O          4.3333461090       -0.0444328718        1.3796256103
 C          2.8423815552        1.8802662723        0.3165116082
 C          2.4769795918        2.6071029482       -0.7993482077
 C          1.4477595397        3.5271016791       -0.6902501338
 C          0.8097989197        3.7097253620        0.5275040793
 C          1.1839100176        2.9679883854        1.6357895096
 C          2.2100186333        2.0435986280        1.5309988648
 H          2.5258142116        1.4447374984        2.3701813178
 H          0.6789577280        3.0991263718        2.5788925127
 H          0.0162635137        4.4354665390        0.6145126785
 H          1.1471710413        4.1011697323       -1.5523933112
 H          3.0002615896        2.4541931463       -1.7292827493
 H          4.4910546078        0.1003129666       -1.9562688816
 H          3.1470674365       -1.1367548808       -3.4743784315
 H          1.0869217819       -2.4403710543       -3.8427658029
 H         -0.4280063560       -2.9331084628       -1.9574746676
 C         -0.1376904369       -2.2003597305        0.6492582157
 H          0.2934161852       -1.7051522015        1.5305009601
 C         -0.2247240389       -3.6855056725        0.9342172723
 C          0.9349018010       -4.3565354671        1.6052606583
 C         -0.3496400987       -4.1554119934        2.3508772573
 H         -0.9700069959       -5.0152249546        2.5544911326
 H         -0.3752680909       -3.4053129810        3.1280724151
 H          1.7813259407       -3.7419904929        1.8750117205
 H          1.1997080989       -5.3563699429        1.2972653279
 H         -0.7609753226       -4.2432068915        0.1782798628
 O         -0.6711914497        0.3819863221        1.5425543362
