  62
        -98.94457303
 C         -2.0291095389       -1.1940166329       -0.6332183238
 C         -1.5328432674       -0.0460309409       -1.2969309156
 C         -2.2523256247        1.2114831203       -1.0372847611
 C         -3.2961490926        1.2182908394       -0.1910571316
 C         -4.0957114841        2.4319786282        0.1837872946
 C         -3.5360185495        3.1161257832        1.4377903168
 C         -2.0301219799        3.3761043562        1.3872516760
 H         -1.7630999079        3.9136789589        2.3004772753
 H         -1.4920467022        2.4251381803        1.4145612318
 C         -1.5618945273        4.1804668939        0.1666124446
 H         -2.4066414793        4.7059950604       -0.2815787412
 H         -0.8482763411        4.9360553173        0.5023024750
 C         -0.8533868674        3.3403154929       -0.8974861884
 H         -0.1025236972        2.7144148588       -0.4086491983
 H         -0.3302166178        4.0176406537       -1.5782844709
 C         -1.7617383455        2.4420385230       -1.7475447335
 H         -2.6016288836        3.0257471990       -2.1310941308
 H         -1.1751474705        2.0837202214       -2.5986406459
 H         -4.0642520293        4.0617999245        1.5768958125
 H         -3.7433302553        2.4806474834        2.3021249405
 H         -4.0968051542        3.1295965386       -0.6517604275
 H         -5.1216455005        2.1161988929        0.3828006228
 O         -3.7339541829        0.1017005665        0.4465649276
 C         -3.1053891124       -1.1159273432        0.2542169874
 O         -3.6015211267       -2.0553242699        0.9105930015
 H          0.6149055795       -0.9150231782       -0.1338678567
 C          0.5998768561       -1.7758908482        0.5108480403
 C         -0.3642564058       -2.7552259499        0.3162246865
 C         -0.3697336146       -3.8652199172        1.1511477223
 C          0.5601941895       -3.9771160083        2.1704131955
 C          1.4901443409       -2.9773579093        2.3886051212
 C          1.5053917231       -1.8618516207        1.5559815884
 N          2.4359844946       -0.8350818797        1.7553039222
 S          2.0967914022        0.7837658888        1.4537898997
 O          2.7501100593        1.4926770309        2.5365035091
 O          0.6820012953        1.0166923276        1.3062786233
 C          2.9981689352        1.1137624055       -0.0478260902
 C          4.3406010861        1.4181842130        0.0869178437
 C          5.0968249875        1.6596202141       -1.0471551605
 C          4.5016007522        1.5925668001       -2.2982472934
 C          3.1555883756        1.2872505840       -2.4171553798
 C          2.3916625055        1.0430146233       -1.2850014669
 H          1.3435545340        0.8010532854       -1.3744607530
 H          2.6844413948        1.2320133615       -3.3854815107
 H          5.0880509990        1.7801940461       -3.1839387819
 H          6.1439013755        1.8988729601       -0.9534604113
 H          4.7577907380        1.4744950651        1.0787538483
 H          3.0009064324       -0.9358949709        2.5853820777
 H          2.1965803439       -3.0523619462        3.2015459006
 H          0.5477956528       -4.8426450441        2.8155984757
 H         -1.1209814462       -4.6291385355        1.0135419638
 C         -1.4031530556       -2.5755254992       -0.7615731762
 H         -2.2200639189       -3.2851192137       -0.5519187775
 C         -0.8834571628       -2.8835531745       -2.1581777495
 C          0.5707755180       -2.9640085151       -2.5011551143
 C         -0.2501001305       -4.2147448444       -2.4378466207
 H         -0.4977035629       -4.7225878903       -3.3576172501
 H         -0.0908407647       -4.8733876953       -1.5972070188
 H          1.2913267617       -2.7857767830       -1.7183899821
 H          0.8756883605       -2.5881698201       -3.4655718241
 H         -1.5363966376       -2.4843641061       -2.9273278689
 O         -0.5494116215       -0.0477360584       -2.0814718852
