  62
        -98.94132276
 C          0.5265445204        1.5395453400        0.1125796905
 C          1.2738929297        0.7588537397        1.0206984009
 C          2.3695305398       -0.0543530906        0.4583293815
 C          2.5547922505       -0.0550158605       -0.8749664184
 C          3.6380919907       -0.7352056808       -1.6691877179
 C          4.9877174709       -0.0082739812       -1.5619365671
 C          5.3845644802        0.3946573386       -0.1443915969
 H          6.3138883704        0.9667644183       -0.2100407863
 H          4.6235515802        1.0612545388        0.2652116128
 C          5.6173596694       -0.7648667215        0.8220198132
 H          6.3866702994       -1.4234684417        0.4131041436
 H          6.0070715690       -0.3372124517        1.7493780634
 C          4.3870233389       -1.6072558612        1.1710300725
 H          4.6378335583       -2.1948242713        2.0588428026
 H          4.1597148891       -2.3193854011        0.3832230523
 C          3.1424301790       -0.7980167909        1.5199205418
 H          3.3998516588       -0.0560597210        2.2847394820
 H          2.4119925385       -1.4602837707        1.9995531114
 H          4.9337885615        0.9015909788       -2.1647462071
 H          5.7594746709       -0.6506330014       -1.9895267867
 H          3.7397699503       -1.7709595509       -1.3645370579
 H          3.3177066213       -0.7198789606       -2.7127930381
 O          1.7558913812        0.6573343398       -1.7205111088
 C          0.7423731712        1.4763813200       -1.2633203993
 O          0.1189964518        2.0780896703       -2.1580945396
 O          1.0528080090        0.7503328397        2.2635578808
 C         -0.5774390796        2.4389155503        0.6362320400
 C         -1.8964754794        2.0441871607        0.0212323792
 C         -2.7971402788        2.9511248010       -0.5209093912
 C         -3.9818810186        2.5069439114       -1.0825457019
 C         -4.2951619890        1.1608965215       -1.1086880521
 C         -3.4029941396        0.2454909412       -0.5601787217
 C         -2.2198962698        0.6931564908        0.0024117790
 H         -1.5326461402       -0.0182438594        0.4382558793
 N         -3.6654092800       -1.1296470787       -0.6049481819
 S         -3.0558547309       -2.1741554190        0.5387471784
 O         -3.8309670012       -3.3854009887        0.3655760179
 O         -3.0872811315       -1.6013900791        1.8648134884
 C         -1.3776802307       -2.5157909594        0.0488626093
 C         -0.9802793700       -2.3497718095       -1.2624673405
 C          0.3065751801       -2.7173442998       -1.6220434798
 C          1.1624832795       -3.2568846301       -0.6753776094
 C          0.7521547087       -3.4105968901        0.6390750904
 C         -0.5289410614       -3.0335095297        1.0072788897
 H         -0.8870331620       -3.1266135397        2.0205097995
 H          1.4212751982       -3.8272794103        1.3749262407
 H          2.1533639995       -3.5670747204       -0.9655085389
 H          0.6339143207       -2.5841812499       -2.6407359996
 H         -1.6672008094       -1.9297971892       -1.9787870709
 H         -4.5748961199       -1.4006499384       -0.9462302524
 H         -5.2160299989        0.8161761618       -1.5534847526
 H         -4.6715848582        3.2205163216       -1.5072055022
 H         -2.5698701985        4.0043319409       -0.5119318810
 H         -0.6326469402        2.2396950002        1.7173964500
 C         -0.2178320391        3.8945781202        0.4237555003
 C         -0.7368460493        4.9462727203        1.3568866901
 C          0.7102158106        4.5594443199        1.3940725508
 H          1.4423454410        5.2561441597        1.0142342113
 H          1.0615142300        3.9678150497        2.2270404510
 H         -0.9968045388        5.9129324604        0.9525590500
 H         -1.3680204498        4.6238475704        2.1713104597
 H         -0.1093298184        4.1462161502       -0.6254085296
