  62
        -98.94460502
 C         -1.9666571606       -0.7737387989        0.5655020008
 C         -2.0109172704       -0.0933078387       -0.6748244792
 C         -2.1659694799        1.3634008613       -0.5959483090
 C         -2.1796353098        1.9703704312        0.6041595011
 C         -2.2865041093        3.4519761312        0.8460702313
 C         -3.7256131992        3.9863650316        0.8356693813
 C         -4.3870937491        4.0486829520       -0.5416185087
 H         -5.3001068789        4.6370279723       -0.4314329087
 H         -3.7344405189        4.5842081619       -1.2315824986
 C         -4.7502442895        2.6791174722       -1.1320195489
 H         -4.7421640798        1.9272558221       -0.3395881390
 H         -5.7658488795        2.7127592726       -1.5324591689
 C         -3.8324907196        2.2132733521       -2.2624608689
 H         -3.9278016594        2.8895604122       -3.1147036988
 H         -4.1581478299        1.2199917722       -2.5811923691
 C         -2.3503086396        2.1223558616       -1.8749835389
 H         -1.9183710393        3.1194826814       -1.7906043687
 H         -1.8181046298        1.5778607315       -2.6589100989
 H         -3.6995532189        4.9971023016        1.2493188914
 H         -4.3303663394        3.3687638717        1.5036304012
 H         -1.8557301493        3.6356027009        1.8329731313
 H         -1.6900957791        3.9847243111        0.1046175714
 O         -2.0773083700        1.2843899210        1.7751875610
 C         -1.9824954105       -0.0977912990        1.7838444108
 O         -1.9213292907       -0.6022047992        2.9255587808
 O         -1.9321209205       -0.6714353186       -1.7906384492
 C         -1.8011738611       -2.2827619389        0.5919449406
 C         -0.5185565212       -2.6496501292       -0.1154585594
 C         -0.4185607214       -3.6703434191       -1.0513660296
 C          0.7861790485       -3.9188022094       -1.6867983295
 C          1.9053569387       -3.1559571798       -1.4112427194
 C          1.8203543090       -2.1463082999       -0.4579582393
 C          0.6202252391       -1.9151543896        0.1914651907
 H          0.5634999593       -1.1261430497        0.9288231608
 N          2.9455448192       -1.3705585403       -0.1271584291
 S          2.7086341597        0.2339660397        0.3413032811
 O          2.3681108397        0.2617421497        1.7430008511
 O          1.7926595799        0.8989793401       -0.5582280089
 C          4.3634165899        0.8631371693        0.1215650312
 C          5.3201189798        0.5406162289        1.0659752012
 C          6.6177876099        0.9923197085        0.8864626113
 C          6.9358837302        1.7548081285       -0.2279293186
 C          5.9648020103        2.0729818090       -1.1652322986
 C          4.6650123602        1.6224804293       -0.9927680087
 H          3.8748720503        1.8480554197       -1.6910057687
 H          6.2136293505        2.6686162290       -2.0286256185
 H          7.9464927303        2.1053522982       -0.3652980885
 H          7.3746703298        0.7486883682        1.6144477213
 H          5.0224798796       -0.0461454612        1.9193319311
 H          3.6900508492       -1.4517208204       -0.8066283291
 H          2.8372632687       -3.3369405200       -1.9247801794
 H          0.8490298383       -4.7083157993       -2.4202514896
 H         -1.2862826516       -4.2612031888       -1.2945740097
 H         -1.6998415612       -2.5602465691        1.6519871205
 C         -3.0275139713       -2.9626420985        0.0200741104
 C         -3.4235677517       -4.3284060284        0.4923320802
 C         -4.2323264613       -3.1327448382        0.8941205204
 H         -5.2100088213       -2.9976052679        0.4566003703
 H         -4.1570999613       -2.7793768984        1.9125777804
 H         -3.8511169219       -5.0170034982       -0.2206545699
 H         -2.8050985019       -4.7956315287        1.2437118102
 H         -3.1951574411       -2.7078003583       -1.0200175495
