  62
        -98.94128273
 C          2.6928108470        0.2808753453       -0.2581891164
 C          2.2697141938        1.0662244052        0.8432555041
 C          1.7327832239        2.3980137817        0.5107273501
 C          1.6605246524        2.7884823977       -0.7730221074
 C          1.1200381653        4.1074099918       -1.2450863052
 C         -0.3771089335        4.0283649604       -1.5691770929
 C         -1.2222922118        3.3915895297       -0.4653705312
 H         -2.2660260531        3.4503468408       -0.7842868156
 H         -0.9768312152        2.3292924468       -0.3906715250
 C         -1.0739228214        4.0469903476        0.9143683180
 H         -0.6590266613        5.0505895579        0.8065406740
 H         -2.0666944241        4.1495640180        1.3577074741
 C         -0.2271142606        3.2484927327        1.9076856295
 H         -0.3939657809        3.6622526982        2.9063982849
 H         -0.5669516771        2.2093261699        1.9223125056
 C          1.2863754103        3.2621168526        1.6564013658
 H          1.7737362610        2.8520842108        2.5461183757
 H          1.6285123351        4.2908010190        1.5191331315
 H         -0.7380463510        5.0396511933       -1.7684705312
 H         -0.5043330704        3.4332899855       -2.4764646264
 H          1.6621257321        4.3919803374       -2.1490131719
 H          1.2958551458        4.8579748894       -0.4764638499
 O          2.0695760309        2.0056663067       -1.8051037277
 C          2.5624501931        0.7346554381       -1.5731810678
 O          2.8779025011        0.1121572255       -2.6092005300
 O          2.3438260566        0.7086063799        2.0469205545
 C          3.2080059098       -1.1459594897       -0.1367180942
 C          2.0731414133       -2.1051466352       -0.3992950962
 C          2.2466742632       -3.2410848359       -1.1814734095
 C          1.1792262776       -4.0805680153       -1.4479185550
 C         -0.0853247374       -3.7861556060       -0.9704320918
 C         -0.2682339054       -2.6515574218       -0.1887769598
 C          0.8131053234       -1.8393285987        0.1147540206
 H          0.6541052080       -0.9678660637        0.7320566301
 N         -1.5353686138       -2.2863830790        0.2989813405
 S         -1.8826384145       -0.6270416314        0.2224598741
 O         -1.3234295500       -0.0696392194       -0.9876644486
 O         -1.4892184794       -0.0155783686        1.4654271738
 C         -3.6628875115       -0.6646893714        0.1227509712
 C         -4.2738784945       -0.5663129110       -1.1127404245
 C         -5.6568348905       -0.6300837358       -1.1835577752
 C         -6.4002925238       -0.7948471088       -0.0245255065
 C         -5.7726124053       -0.8910128371        1.2087291396
 C         -4.3904954485       -0.8259789773        1.2868481469
 H         -3.8580671805       -0.8851926549        2.2217678220
 H         -6.3538261678       -1.0155494037        2.1080320774
 H         -7.4760152448       -0.8450577785       -0.0826976146
 H         -6.1472048419       -0.5510332975       -2.1403817176
 H         -3.6539558419       -0.4305888410       -1.9846716326
 H         -2.2822255709       -2.8399620435       -0.0995438625
 H         -0.9251592909       -4.4218790139       -1.2067244638
 H          1.3273984395       -4.9593314800       -2.0570119801
 H          3.2191028153       -3.4491476605       -1.6032228414
 H          3.9345596676       -1.2708274152       -0.9571453755
 C          3.9384306037       -1.4366036611        1.1651131414
 C          3.3293586891       -2.2241262992        2.2818014883
 C          4.4293783337       -2.8231568971        1.4611872599
 H          5.4048040427       -2.9373522642        1.9089645433
 H          4.1637882363       -3.6071537175        0.7687108999
 H          3.5391332793       -1.9043442616        3.2907973939
 H          2.3256576803       -2.5976061678        2.1474152903
 H          4.5883687637       -0.6178202868        1.4541715948
