  62
        -98.94451251
 C          1.9407849699        1.3464919197        0.0948625711
 C          2.2174816702        0.3903103599       -0.9123126191
 C          3.5907705503       -0.1313708599       -0.9409399389
 C          4.4984155900        0.3005304100       -0.0478364485
 C          5.9394814300       -0.1237745399        0.0330843417
 C          6.1643916300       -1.4298056301        0.8072121715
 C          5.7149886703       -2.7002278000        0.0844187810
 H          6.1507136206       -2.7220761197       -0.9149987389
 H          6.1270387602       -3.5465540701        0.6376070709
 C          4.1921979103       -2.8688110901       -0.0118185894
 H          3.9212184204       -3.8924418102        0.2568912102
 H          3.7054236901       -2.2104261803        0.7117492006
 C          3.6106794407       -2.5960313898       -1.3990153995
 H          3.9902469409       -3.3361292996       -2.1071457896
 H          2.5251035107       -2.7112620699       -1.3427796798
 C          3.9134244307       -1.1953130996       -1.9470177691
 H          4.9582863907       -1.1284366694       -2.2489772988
 H          3.2839654609       -1.0273035495       -2.8242817192
 H          5.6527894797       -1.3583026904        1.7698643513
 H          7.2355918199       -1.5104717900        1.0056341117
 H          6.3507902203       -0.2200735596       -0.9721450582
 H          6.4700789498        0.6783476700        0.5506208121
 O          4.1975985797        1.2219449797        0.9040935016
 C          2.9238107096        1.7516445995        1.0055896214
 O          2.7898289893        2.5759064293        1.9319234916
 H         -0.3563403198       -0.3962086704       -0.5258183800
 C         -0.7859768201       -0.0952058007        0.4181602800
 C         -0.3933126103        1.1066967192        0.9899008004
 C         -0.9500457107        1.4754771888        2.2085533403
 C         -1.8760567608        0.6607773286        2.8374864199
 C         -2.2661591005       -0.5357496313        2.2634759395
 C         -1.7091407301       -0.9148282110        1.0491781895
 N         -2.1179403799       -2.1233651409        0.4449194391
 S         -3.7566492498       -2.2094425209        0.0954564887
 O         -4.4827901600       -2.5200312913        1.3012827284
 O         -3.8795630094       -3.1649998307       -0.9823835416
 C         -4.1711915898       -0.5660577008       -0.4604848610
 C         -4.8814846701        0.2808780189        0.3652976090
 C         -5.1216449001        1.5790785890       -0.0553588507
 C         -4.6444028298        2.0065633593       -1.2843184805
 C         -3.9325470395        1.1429370496       -2.1026746305
 C         -3.6887427395       -0.1555289105       -1.6872969608
 H         -3.1408289493       -0.8542645303       -2.2995335808
 H         -3.5614515693        1.4758818599       -3.0589200403
 H         -4.8289685198        3.0191166094       -1.6073138103
 H         -5.6745558103        2.2537518388        0.5780170593
 H         -5.2328236203       -0.0921192014        1.3131923488
 H         -1.5811548196       -2.3424907406       -0.3828892008
 H         -2.9928094005       -1.1802482915        2.7314668991
 H         -2.2994937510        0.9611732383        3.7836799199
 H         -0.6446834509        2.4045689387        2.6673884107
 C          0.5838961098        2.0100016095        0.2766363609
 H          0.7671936695        2.8791269993        0.9219239511
 C         -0.0169660399        2.4996936797       -1.0283900092
 C         -1.0759100701        3.5578292496       -0.9853753592
 C          0.2912100500        3.8854395599       -1.5050898687
 H          0.4182771503        4.0486826202       -2.5647712886
 H          0.9404101398        4.4926793798       -0.8908199684
 H         -1.8923368799        3.4952551797       -1.6873812794
 H         -1.3563471704        3.9446177393       -0.0176133891
 H         -0.1073819897        1.7245055699       -1.7772253694
 O          1.3825303605       -0.0249280399       -1.7612343294
