  62
        -98.94286387
 C          2.5017321254        0.1833369624       -0.2304280643
 C          2.3515657958        1.3893931178       -0.9590167784
 C          1.7834390931        2.5244186947       -0.2266599737
 C          1.4324931118        2.3740028642        1.0629636328
 C          0.8069990621        3.4260113222        1.9377211474
 C         -0.7155321690        3.5243851825        1.7657859976
 C         -1.1796679500        4.2058813188        0.4773466740
 H         -2.2412061643        4.4299865894        0.6000197911
 H         -0.6556610603        5.1554071833        0.3588797270
 C         -1.0017092570        3.3512938998       -0.7852483436
 H         -0.8749274117        2.3055899780       -0.4948762005
 H         -1.9097511525        3.4096618388       -1.3906814014
 C          0.1636312532        3.7720345391       -1.6815840684
 H          0.2254387052        3.0675979795       -2.5150513256
 H         -0.0302950157        4.7657993906       -2.0925975117
 C          1.5290153511        3.7939477290       -0.9830673062
 H          2.3031857281        3.8836121471       -1.7495705806
 H          1.5965363348        4.6522334448       -0.3148356397
 H         -1.1331205990        2.5146768031        1.8120070062
 H         -1.1060610419        4.0896907234        2.6156573287
 H          1.0209466913        3.1413934277        2.9702967855
 H          1.2650224358        4.3959463045        1.7403061813
 O          1.6231527488        1.2127911376        1.7402804337
 C          2.1021489299        0.0778870006        1.1040246444
 O          2.1430949592       -0.9292064799        1.8385655443
 O          2.6642690775        1.5051889253       -2.1755870133
 C          2.9385917649       -1.0528686655       -1.0000229338
 C          1.9553386522       -2.1618990606       -0.7165926761
 C          2.3092005417       -3.4499291301       -0.3414641411
 C          1.3307574173       -4.3785151885       -0.0268469776
 C         -0.0070109877       -4.0316449605       -0.0397044067
 C         -0.3710196453       -2.7450990966       -0.4212568004
 C          0.6047188831       -1.8443949023       -0.8062390843
 H          0.3140031634       -0.8505620071       -1.1125020104
 N         -1.7224413566       -2.3276418272       -0.4223451357
 S         -2.1141432817       -1.0264578916        0.5921174960
 O         -1.2275491945        0.0802564490        0.3568699983
 O         -2.2170476281       -1.5032260609        1.9573705280
 C         -3.7417474427       -0.6362138342       -0.0211375704
 C         -3.8543362102        0.2318269212       -1.0894127849
 C         -5.1135857592        0.5140631468       -1.5944641961
 C         -6.2331319093       -0.0768211775       -1.0279083869
 C         -6.1047622304       -0.9454260808        0.0452946831
 C         -4.8478510982       -1.2304316604        0.5551914154
 H         -4.7022801375       -1.8875768551        1.3973247886
 H         -6.9771549811       -1.4002555604        0.4860772318
 H         -7.2118063270        0.1441646491       -1.4236111189
 H         -5.2160540269        1.1919266547       -2.4265456691
 H         -2.9568759967        0.6728641949       -1.4921774855
 H         -2.3415050709       -3.0911448331       -0.1759402036
 H         -0.7646340905       -4.7431153457        0.2546233672
 H          1.6178239901       -5.3775154427        0.2653844633
 H          3.3490692204       -3.7227957655       -0.2655442545
 H          2.8312824543       -0.7617368533       -2.0592521433
 C          4.3925513069       -1.4548518181       -0.8093994312
 C          5.4111168447       -0.4659853969       -0.3288093649
 C          5.0066929191       -1.6106307485        0.5484189116
 H          5.7147530306       -2.4121163174        0.7015006970
 H          4.3790054656       -1.4099110841        1.4022025296
 H          6.3925014839       -0.4805952907       -0.7787958698
 H          5.0625521569        0.5231078172       -0.0683679522
 H          4.7266785933       -2.1479911669       -1.5754860381
