  62
        -98.94843079
 C          0.7763513976        1.2373309885        0.0793646604
 C          1.5227462012        0.6773851068        1.1424093921
 C          2.4006907549       -0.4450475352        0.7871898499
 C          2.4322716005       -0.8777485813       -0.4868347307
 C          3.3825078843       -1.9135689499       -1.0133309523
 C          4.6828973974       -1.2646026973       -1.5107448172
 C          5.3146977485       -0.2912940506       -0.5157592956
 H          6.2399053627        0.0772240462       -0.9640357518
 H          4.6545026147        0.5696670153       -0.3884559432
 C          5.6211984704       -0.8996911192        0.8598185300
 H          6.6225331503       -0.5898986606        1.1663172016
 H          5.6259124872       -1.9881576826        0.7920823932
 C          4.6621593856       -0.4661672705        1.9698615570
 H          5.0832038841       -0.7815921761        2.9283882550
 H          4.5901571374        0.6243204994        1.9880113401
 C          3.2418019842       -1.0390502923        1.8816693161
 H          3.2885350282       -2.1257524352        1.7858257897
 H          2.7285165822       -0.8000162764        2.8181520480
 H          4.4659371444       -0.7180211417       -2.4311448507
 H          5.3949726065       -2.0577529349       -1.7457892535
 H          3.6038695993       -2.6330846293       -0.2275663739
 H          2.9080067377       -2.4277769381       -1.8492045513
 O          1.6413153756       -0.3656507985       -1.4625669297
 C          0.7906686569        0.6990551527       -1.2073333227
 O          0.1193422922        1.0677207914       -2.1882082870
 H         -1.5380013445        0.3825401285        1.1004415485
 C         -2.1111758226        1.0514892472        0.4740590855
 C         -1.5153521065        2.2065314743       -0.0180592560
 C         -2.2761875007        3.0680812220       -0.7976345094
 C         -3.5949751785        2.7668406286       -1.0898214247
 C         -4.1795610131        1.6081239251       -0.6147428341
 C         -3.4293625511        0.7456445184        0.1783409034
 N         -4.0020402195       -0.4273172912        0.6874182663
 S         -3.0886479655       -1.7405254154        1.1298634945
 O         -4.0434955351       -2.8287315429        1.1838106785
 O         -2.3847899692       -1.4752066958        2.3605801380
 C         -1.9221465489       -2.0760046058       -0.1785651292
 C         -0.7687119250       -2.7506891521        0.1672895456
 C          0.1120897640       -3.1353866324       -0.8292780390
 C         -0.1656015312       -2.8238077155       -2.1508572340
 C         -1.3189589094       -2.1319137661       -2.4815584684
 C         -2.2143850692       -1.7633444434       -1.4903735200
 H         -3.1186224705       -1.2298923151       -1.7339989233
 H         -1.5237396719       -1.8742430744       -3.5079770824
 H          0.5222257706       -3.1159877468       -2.9286473509
 H          1.0094419364       -3.6732076305       -0.5690405005
 H         -0.5819373356       -2.9558198963        1.2097762178
 H         -4.9027738860       -0.6823526705        0.3121219602
 H         -5.2058487075        1.3697808092       -0.8480804600
 H         -4.1739483702        3.4412651633       -1.7020372025
 H         -1.8364480482        3.9731201550       -1.1822898868
 C         -0.0752641241        2.4653204256        0.3427082368
 H         -0.0223078572        2.6308355560        1.4295661562
 C          0.5229424822        3.6653376023       -0.3633206752
 C          0.3381232878        5.0437956385        0.1949400134
 C          1.6778103010        4.3771838157        0.2726664215
 H          2.4739273722        4.7389211207       -0.3607482461
 H          2.0153966026        4.0134683193        1.2324472227
 H          0.2170838732        5.8675377851       -0.4922379847
 H         -0.2320029918        5.1412845269        1.1064268466
 H          0.5433002322        3.5455667107       -1.4409510742
 O          1.4724094795        1.1083349661        2.3271846515
