  62
        -98.94687722
 C         -1.1515581183       -1.1557511255       -0.1772064341
 C         -2.0122426072       -0.8390042308        0.9078605214
 C         -2.8382294707        0.3647613768        0.7601487800
 C         -2.7243014196        1.1023977969       -0.3589221587
 C         -3.5532527401        2.3123288292       -0.6777612964
 C         -4.8203977970        1.9257041483       -1.4536282486
 C         -5.6058070420        0.7768030770       -0.8210182353
 H         -6.4944474626        0.6136856168       -1.4346883047
 H         -5.0080604313       -0.1360246276       -0.8737471796
 C         -6.0278600878        1.0216391701        0.6345804397
 H         -7.0708692277        0.7200460632        0.7520135060
 H         -5.9724603248        2.0866365224        0.8629603845
 C         -5.2188119302        0.2377773127        1.6698124140
 H         -5.1983067133       -0.8194974722        1.3937374332
 H         -5.7331467296        0.3140291747        2.6315535310
 C         -3.7745613136        0.7083578634        1.8841194981
 H         -3.7650271315        1.7822804456        2.0810351613
 H         -3.3860461475        0.1927153546        2.7669938229
 H         -5.4603828251        2.8065779021       -1.5310312771
 H         -4.5309573620        1.6265596033       -2.4636428961
 H         -3.8257085686        2.8173505094        0.2471081878
 H         -2.9573387477        2.9888335968       -1.2921469301
 O         -1.8627109499        0.7940988927       -1.3573566240
 C         -1.0587363773       -0.3329978683       -1.2999910943
 O         -0.3289463141       -0.4653218568       -2.3040141701
 H          1.5525564092       -1.0432819420       -1.3932665472
 C          1.9167820898       -1.3819282835       -0.4348975647
 C          1.0788815179       -2.1182836683        0.3905953553
 C          1.5592909163       -2.5232860240        1.6302275829
 C          2.8448506738       -2.1999990354        2.0308745608
 C          3.6730624736       -1.4555178631        1.2092860280
 C          3.1960125829       -1.0400818722       -0.0264643255
 N          4.0081041803       -0.2186313565       -0.8468761966
 S          4.1783519611        1.3415399020       -0.2572054450
 O          4.7263987126        2.1213165442       -1.3431616575
 O          4.9635024752        1.2895158280        0.9497317334
 C          2.5223836063        1.8894608405        0.1232299505
 C          1.9646305177        1.5486089818        1.3395634136
 C          0.6628158194        1.9364400944        1.6106457373
 C         -0.0511587022        2.6635374157        0.6712947223
 C          0.5203788269        2.9921974224       -0.5476938332
 C          1.8167246988        2.5943204409       -0.8304066853
 H          2.2966255183        2.8303267753       -1.7668777081
 H         -0.0417004532        3.5485029486       -1.2806276336
 H         -1.0613026236        2.9708538368        0.8912987257
 H          0.2066966253        1.6670070255        2.5500123020
 H          2.5539980892        0.9965579418        2.0532374447
 H          3.6587061063       -0.1637431961       -1.7947039509
 H          4.6654277300       -1.1661218039        1.5147574745
 H          3.2033780797       -2.5240560469        2.9960392073
 H          0.9107063541       -3.0808753872        2.2899434154
 C         -0.3332364355       -2.4304178397       -0.0401561367
 H         -0.8131376405       -2.9921917310        0.7722690214
 C         -0.3465642975       -3.2894733251       -1.2895883330
 C         -0.0217871384       -4.7473508782       -1.1721082941
 C         -1.4260528424       -4.3131344748       -1.4649618066
 H         -1.8237870336       -4.4776598111       -2.4551691228
 H         -2.1620105012       -4.4041310541       -0.6793193259
 H          0.1937692903       -5.1341837869       -0.1876727646
 H          0.5482737615       -5.2129304614       -1.9612990122
 H         -0.0096352429       -2.7686838599       -2.1763080801
 O         -2.0916797442       -1.5420876222        1.9496895023
