  62
        -98.94472323
 C          2.0101517526        1.3659049539        0.3071355446
 C          2.6516111632        0.7624694907       -0.8016406407
 C          3.8069477490       -0.0901486398       -0.4845091458
 C          4.1829745006       -0.2437492614        0.7982079939
 C          5.3033519649       -1.1269926173        1.2640962267
 C          4.7962049855       -2.5373383468        1.5963510252
 C          3.9215285346       -3.1525631631        0.5035535623
 H          3.6470922271       -4.1571470929        0.8331821881
 H          2.9950231699       -2.5791001993        0.4202852757
 C          4.5907147528       -3.2321188446       -0.8757336105
 H          4.3966341253       -4.2186098903       -1.3020876479
 H          5.6715039955       -3.1322485286       -0.7691340357
 C          4.0836829992       -2.2022442815       -1.8872350874
 H          2.9916004154       -2.2355355585       -1.9290344163
 H          4.4563691946       -2.4852683416       -2.8752594145
 C          4.5125296859       -0.7511942276       -1.6347543881
 H          5.5953955359       -0.7049533857       -1.5027309991
 H          4.2479539397       -0.1689394682       -2.5222450897
 H          4.2093034616       -2.4868728752        2.5165659444
 H          5.6585911177       -3.1808822419        1.7790849074
 H          5.7384768468       -0.6864199881        2.1626973759
 H          6.0660559328       -1.1769368635        0.4896462169
 O          3.5420049555        0.3537410326        1.8355118917
 C          2.4335590506        1.1569538795        1.6188009768
 O          1.9168673142        1.6140188322        2.6593276808
 O          2.2804627761        0.9239792059       -1.9926928178
 C          0.7971483019        2.2521123160        0.0874096617
 C         -0.2967505018        1.4660107754       -0.5947853103
 C         -1.0199656838        1.9408507841       -1.6804308078
 C         -2.0056336098        1.1609105964       -2.2618459134
 C         -2.2989481384       -0.0972192183       -1.7706223013
 C         -1.5976094039       -0.5720723909       -0.6687157699
 C         -0.6133321032        0.2113723125       -0.0870456275
 H         -0.0662201557       -0.1617705013        0.7706414896
 N         -1.9021581098       -1.8401634414       -0.1461989792
 S         -3.5153557003       -2.2528867627        0.0218476876
 O         -3.5520115776       -3.1962317227        1.1174714506
 O         -4.0264151397       -2.7340409028       -1.2374910903
 C         -4.3474228983       -0.7390533547        0.4692722304
 C         -3.9418953308       -0.0867353897        1.6168197506
 C         -4.5570365342        1.1051938492        1.9630708902
 C         -5.5630818703        1.6215089439        1.1604529046
 C         -5.9633092868        0.9514323418        0.0150688112
 C         -5.3494368192       -0.2398105696       -0.3375981236
 H         -5.6262232440       -0.7916175354       -1.2211412872
 H         -6.7473373020        1.3540603784       -0.6056300061
 H         -6.0373979226        2.5512780402        1.4320286308
 H         -4.2460375608        1.6269896328        2.8540232364
 H         -3.1593019094       -0.5146817070        2.2231952130
 H         -1.3713617580       -2.0863753426        0.6758086357
 H         -3.0484632515       -0.7240341525       -2.2258037081
 H         -2.5501504642        1.5371200174       -3.1141774976
 H         -0.8047576661        2.9176302951       -2.0805372577
 H          0.4400820521        2.5313983802        1.0895876445
 C          1.1952014604        3.5104991170       -0.6549854298
 C          0.4392444402        4.7858986524       -0.4385120030
 C          1.8234351513        4.6321616652        0.1143359176
 H          2.6296254479        5.1844506650       -0.3446975600
 H          1.9399214613        4.4973841599        1.1801737113
 H          0.2962141337        5.4497529512       -1.2776656247
 H         -0.3869891361        4.7660383473        0.2557489245
 H          1.5846084307        3.3039203716       -1.6450479204
