  62
        -98.94575622
 C         -2.5021657480        0.0471959124        0.5634490796
 C         -2.4669228652        0.8360663574       -0.6113623365
 C         -1.9927700332        2.2144269858       -0.4416419641
 C         -1.5626372126        2.6297432582        0.7628497291
 C         -1.0178261570        3.9944141108        1.0868640657
 C          0.4616363152        4.1682482568        0.7158466165
 C          0.7436860115        4.3424731203       -0.7774912926
 H          0.0807414513        5.1060189691       -1.1866568504
 H          1.7660875363        4.7154258004       -0.8661833856
 C          0.6211435408        3.0518482454       -1.5991719215
 H          0.6795337893        2.1877270026       -0.9336955447
 H          1.4664855695        2.9821170343       -2.2886458917
 C         -0.6494315897        2.9462339134       -2.4423885349
 H         -0.6591464250        1.9632464504       -2.9201264746
 H         -0.6333500568        3.7059572851       -3.2281337069
 C         -1.9543084134        3.0982557308       -1.6526936940
 H         -2.0981702986        4.1389644060       -1.3619858763
 H         -2.7803613615        2.7982085822       -2.3028902709
 H          0.8271325925        5.0543975299        1.2406641855
 H          1.0161717783        3.3031963709        1.0893120781
 H         -1.6145402478        4.7587533445        0.5874019545
 H         -1.1216792906        4.1217425348        2.1666601987
 O         -1.5926640632        1.8343393233        1.8660978403
 C         -2.0478726018        0.5298295725        1.7906567820
 O         -2.0168625514       -0.0887573149        2.8768123512
 O         -2.8221973670        0.4217791057       -1.7462024779
 C         -2.8979543705       -1.4200474041        0.4903748375
 C         -1.8429040989       -2.1134998664       -0.3383639988
 C         -2.0961781011       -2.8053436722       -1.5141867805
 C         -1.0463575661       -3.3117406503       -2.2629070674
 C          0.2652633183       -3.1207318903       -1.8705089777
 C          0.5263724250       -2.4484908852       -0.6802201052
 C         -0.5261323330       -1.9814966205        0.0867359858
 H         -0.3150963547       -1.4651144683        1.0134790342
 N          1.8412323355       -2.2381633912       -0.2340997616
 S          2.1587956419       -0.8395887493        0.6618729166
 O          1.9835242725       -1.1489885819        2.0601619876
 O          1.4065549593        0.2795228619        0.1460758762
 C          3.8950696377       -0.6211365585        0.3174537326
 C          4.2901007760        0.3421076374       -0.5909831833
 C          5.6401293231        0.4845401393       -0.8722912056
 C          6.5658813628       -0.3365238858       -0.2464480044
 C          6.1540552489       -1.2986574644        0.6641907260
 C          4.8063531424       -1.4450029680        0.9515426786
 H          4.4392095650       -2.1698808707        1.6593326784
 H          6.8768701575       -1.9330829531        1.1511493709
 H          7.6154852622       -0.2239664591       -0.4674078347
 H          5.9627305559        1.2341834382       -1.5766509068
 H          3.5331533800        0.9600649024       -1.0472983224
 H          2.5366035597       -2.4030090677       -0.9486774422
 H          1.0814186120       -3.4856784553       -2.4752476177
 H         -1.2539655022       -3.8415023531       -3.1802990295
 H         -3.1105617316       -2.9295334559       -1.8554688064
 H         -2.8355131976       -1.8039535979        1.5191625090
 C         -4.3098074207       -1.5992808401       -0.0205973904
 C         -5.0612279035       -2.8568225616        0.2946270029
 C         -5.4455547881       -1.5682379009        0.9556943752
 H         -6.3661820166       -1.0887798238        0.6589994009
 H         -5.1998391915       -1.4330753873        1.9992739883
 H         -5.7227179275       -3.2642332742       -0.4546416898
 H         -4.5577721343       -3.6017130284        0.8923117252
 H         -4.4681810393       -1.1337093800       -0.9857190419
