  62
        -98.94054957
 C          2.3721109318        0.7701417754       -0.1149710260
 C          3.5531585452        1.0655857450        0.6069377275
 C          4.8015975305        0.5657978353        0.0211152101
 C          4.7691442416       -0.1054869953       -1.1447036157
 C          5.9596221799       -0.6611366459       -1.8784706768
 C          6.4109342913       -2.0408247238       -1.3794915183
 C          7.1065488825       -2.0448165180       -0.0176334854
 H          7.5591774773       -3.0303994179        0.1079004065
 H          7.9151169269       -1.3132993926       -0.0218171955
 C          6.1730521967       -1.7760845796        1.1710116037
 H          5.1362077943       -1.9257582001        0.8606547133
 H          6.3764845596       -2.4983135562        1.9648968784
 C          6.3103082084       -0.3812911214        1.7816383071
 H          7.3067947394       -0.2664785231        2.2137743089
 H          5.5801585615       -0.2869127883        2.5895801723
 C          6.0714806211        0.7667526223        0.7920042380
 H          5.9715953994        1.6947012002        1.3602979647
 H          6.9185515596        0.8611764117        0.1131339846
 H          7.1063150120       -2.4431625973       -2.1197073962
 H          5.5412715563       -2.7011790617       -1.3468324879
 H          6.7911396398        0.0410472921       -1.8134052581
 H          5.6627516372       -0.7537602021       -2.9253126628
 O          3.6138672522       -0.3485358076       -1.8198965333
 C          2.3876757843        0.0607822627       -1.3156785141
 O          1.4116307630       -0.2583763135       -2.0209088097
 O          3.5621934438        1.7112467348        1.6894650101
 C          1.0383108530        1.2340843379        0.4392140702
 C          0.1243969260        0.0553204650        0.6666441950
 C          0.6086353609       -1.0466672432        1.3683335177
 C         -0.1954618528       -2.1440907936        1.6040090632
 C         -1.5064734958       -2.1614586423        1.1605248953
 C         -2.0010039656       -1.0667303947        0.4629489689
 C         -1.1866109003        0.0316144223        0.2202250608
 H         -1.5986419665        0.8649235655       -0.3234368947
 N         -3.3200517687       -1.0605201185       -0.0185151881
 S         -4.1694815988        0.3984204706       -0.0193898753
 O         -3.8399230630        1.1383375372       -1.2112683563
 O         -3.9702336545        1.0870357354        1.2360341202
 C         -5.8433090121       -0.2076964724       -0.1325080722
 C         -6.3381656915       -0.5633521710       -1.3731623494
 C         -7.6273760587       -1.0639135180       -1.4614840023
 C         -8.3959422587       -1.2001832559       -0.3148242605
 C         -7.8866119537       -0.8371398533        0.9228780115
 C         -6.5974137069       -0.3371010110        1.0185909768
 H         -6.1627992510       -0.0337483867        1.9574893262
 H         -8.4878437241       -0.9408958448        1.8117295062
 H         -9.3993022657       -1.5891912916       -0.3869850343
 H         -8.0276931735       -1.3446865279       -2.4223033263
 H         -5.7071369530       -0.4315622383       -2.2367755220
 H         -3.8783936161       -1.8172359147        0.3522998919
 H         -2.1367542716       -3.0178170561        1.3465390488
 H          0.1975996773       -2.9916875649        2.1453604606
 H          1.6301656335       -1.0293564332        1.7241694153
 H          1.2669942034        1.6806195899        1.4192477539
 C          0.4370755487        2.3021977960       -0.4491952454
 C         -0.5060122410        3.3164342466        0.1232333062
 C          0.8766785178        3.7249244348       -0.2850675064
 H          0.9959539401        4.3330465725       -1.1691033310
 H          1.5980534330        3.9338774979        0.4913920864
 H         -1.3435185609        3.6364039221       -0.4791791470
 H         -0.7304548626        3.2506674638        1.1775059505
 H          0.2513611657        1.9486691198       -1.4580315763
