  62
        -98.93688114
 C         -1.3968741333       -1.0832990373        0.0233942992
 C         -2.7392824575       -1.5330538606        0.0504549019
 C         -3.7646075001       -0.5513153429        0.4466034073
 C         -3.3852930188        0.6917814365        0.7956515928
 C         -4.1907746067        1.8849877449        1.2661663074
 C         -5.7084966875        1.9158254622        1.1056760385
 C         -6.1983376617        1.9871207339       -0.3404381337
 H         -7.2873084614        1.9027877970       -0.3365874569
 H         -5.9427961130        2.9693407671       -0.7460007193
 C         -5.6228624837        0.9355876721       -1.2860012153
 H         -6.0515173649        1.1066524352       -2.2773121316
 H         -4.5433684466        1.0739699373       -1.3754913533
 C         -5.9072149810       -0.5152052959       -0.9015860852
 H         -6.9819270659       -0.6579204686       -0.7729275048
 H         -5.5847442513       -1.1460241901       -1.7347468558
 C         -5.1895531136       -1.0172041367        0.3635166850
 H         -5.7366807402       -0.7455128831        1.2631016177
 H         -5.1528986451       -2.1097638950        0.3200109570
 H         -6.1596550909        1.0718576677        1.6191926746
 H         -6.0568947283        2.8182436161        1.6155212956
 H         -3.9532451545        2.0026743654        2.3291448905
 H         -3.7601417701        2.7530190768        0.7570480940
 O         -2.0718463354        1.0593671008        0.8197395616
 C         -1.0473567932        0.2020920015        0.4378129828
 O          0.0848145836        0.7064831971        0.5237326605
 O         -3.0727878695       -2.7137882546       -0.2385766310
 C         -0.3296320671       -2.0649818932       -0.4250243842
 C          0.8565202919       -2.0064385552        0.5019633558
 C          0.7087317741       -2.4562837434        1.8114371086
 C          1.7619266635       -2.3929304262        2.7027230469
 C          2.9828250886       -1.8743989054        2.3086033456
 C          3.1411347783       -1.4259847141        1.0028239108
 C          2.0844775999       -1.5010591011        0.1063524725
 H          2.2312184582       -1.1402391856       -0.8970745714
 N          4.3740192003       -0.9168428416        0.5745287851
 S          4.4912518480        0.2444675992       -0.6152350702
 O          4.2017813595       -0.3339668764       -1.9043616631
 O          5.8347285538        0.7639094991       -0.4554244708
 C          3.3208415341        1.5325111108       -0.2315286713
 C          2.4913096107        2.0082817119       -1.2236071102
 C          1.6213840067        3.0448498835       -0.9307939682
 C          1.5947253540        3.5828588948        0.3446216533
 C          2.4356693556        3.0939842604        1.3310725263
 C          3.3106660232        2.0610642339        1.0427348016
 H          3.9778219459        1.6644775342        1.7911416319
 H          2.4054238962        3.5100864258        2.3255949456
 H          0.9073565982        4.3822723394        0.5737173775
 H          0.9594730925        3.4202526521       -1.6956814804
 H          2.5337298972        1.5534802427       -2.2005989418
 H          5.0634485090       -0.7867585394        1.2993804795
 H          3.8060966948       -1.8170806496        3.0042851636
 H          1.6315974973       -2.7430219962        3.7157163583
 H         -0.2498801820       -2.8481086807        2.1237066771
 H         -0.8012817845       -3.0560333447       -0.3173540662
 C          0.0576170087       -1.9229019519       -1.8895642807
 C         -0.9459775061       -1.4965722680       -2.9173112734
 C          0.1900245967       -0.5886930784       -2.5580204286
 H          0.9908956300       -0.4563374785       -3.2716481795
 H         -0.0170595190        0.2895740357       -1.9661580577
 H         -0.9336564267       -1.9838259117       -3.8806927800
 H         -1.9358624615       -1.2370427788       -2.5713022360
 H          0.7645831970       -2.6882953424       -2.1967439602
