  62
        -98.94321415
 C         -0.9761523620       -1.7274103215       -0.3482918473
 C          0.2026204449       -1.5156316816       -1.0978005162
 C          1.4537449090       -2.0640223163       -0.5424532038
 C          1.4137238306       -2.6785116702        0.6539244827
 C          2.5638662868       -3.2910014921        1.4075915792
 C          3.4352639746       -2.2421581395        2.1234486621
 C          3.6472105362       -0.9409753353        1.3519862948
 H          2.6701973653       -0.5243052389        1.0951877255
 H          4.1204490173       -0.2247531797        2.0306926257
 C          4.5269074113       -1.0544906565        0.1079668125
 H          4.5824742375       -0.0630619909       -0.3497714648
 H          5.5377596501       -1.3294455292        0.4199424105
 C          4.0726362926       -2.0574492360       -0.9520405321
 H          4.7226859395       -1.9254425328       -1.8222533631
 H          4.2291622376       -3.0735752276       -0.6002812277
 C          2.6420673418       -1.8803959077       -1.4546861303
 H          2.4879105966       -2.5681622612       -2.2957255154
 H          2.5300431527       -0.8754672255       -1.8749792636
 H          2.9420171438       -1.9817962135        3.0630279569
 H          4.4010660994       -2.6919505397        2.3605360997
 H          2.1312984037       -3.9539094432        2.1600687263
 H          3.1577335127       -3.9003082130        0.7316629576
 O          0.2659646725       -2.7948364046        1.3784699677
 C         -0.9459638226       -2.3177326988        0.9138480872
 O         -1.9005642707       -2.4900154789        1.6970912635
 O          0.2134294100       -0.8947339206       -2.1961797059
 C         -2.2929465942       -1.1887610022       -0.8832131367
 C         -2.7335679490       -0.0525958874        0.0053753279
 C         -3.9697233575        0.0221775147        0.6316112367
 C         -4.2528628030        1.0738971961        1.4872358100
 C         -3.3132727433        2.0547171828        1.7458388820
 C         -2.0777580162        1.9953696494        1.1094408997
 C         -1.8124979225        0.9640426362        0.2262740133
 H         -0.8536315624        0.9186781622       -0.2688065215
 N         -1.0960086383        2.9725506879        1.3262391240
 S          0.5225206599        2.5637575258        1.2177930549
 O          0.7808124011        1.2205228026        1.6827389437
 O          1.2057361175        3.6189173785        1.9397483396
 C          0.9119010749        2.7209770688       -0.5122981481
 C          0.2085257051        3.6142356869       -1.2953427090
 C          0.5555405101        3.7488692455       -2.6301265478
 C          1.5980541751        3.0008947652       -3.1547555912
 C          2.3001673564        2.1154754443       -2.3528899218
 C          1.9551311543        1.9730715348       -1.0188455611
 H          2.4651938979        1.2858752490       -0.3626185829
 H          3.1097655425        1.5321851827       -2.7624226345
 H          1.8641138082        3.1046418323       -4.1948258661
 H          0.0096567301        4.4350008370       -3.2576466436
 H         -0.6000850845        4.1762060220       -0.8585838812
 H         -1.2834380223        3.6244199010        2.0734456684
 H         -3.5269508809        2.8562906864        2.4363108604
 H         -5.2144725180        1.1192307468        1.9757758149
 H         -4.7039517482       -0.7487666973        0.4657771047
 H         -2.0571628299       -0.7760960719       -1.8752487639
 C         -3.3196987917       -2.2884546269       -1.0372362934
 C         -4.4392067094       -2.1341371291       -2.0218774829
 C         -3.3293565870       -3.1029080521       -2.2949602453
 H         -3.5349232928       -4.1602390966       -2.2217482845
 H         -2.6045663093       -2.8510465960       -3.0552758064
 H         -5.4104678671       -2.5282853831       -1.7641381628
 H         -4.4710298399       -1.2244163744       -2.6017916115
 H         -3.5217326375       -2.8052714027       -0.1061916119
