  62
        -98.94285496
 C         -1.5799968933       -1.4560127730        0.1171704574
 C         -2.7131835679       -0.9675024996        0.8139237767
 C         -3.3583689850        0.2217705108        0.2457972082
 C         -2.8411700544        0.7981375285       -0.8542850037
 C         -3.3872922296        2.0115959184       -1.5575650138
 C         -2.9508969276        3.3466744239       -0.9382286760
 C         -3.6075308038        3.6925094281        0.3986538936
 H         -3.3850818511        4.7415988045        0.6038995119
 H         -4.6903019935        3.6020287549        0.3073830601
 C         -3.1156131838        2.8444692975        1.5800871098
 H         -2.1781911019        2.3520762877        1.3094947449
 H         -2.9004683005        3.4941248374        2.4317272390
 C         -4.1100831498        1.7855981475        2.0560993291
 H         -5.0018687964        2.2736626656        2.4555430657
 H         -3.6466845273        1.2176194275        2.8671358777
 C         -4.5409707484        0.7928870512        0.9686868758
 H         -5.0676459273       -0.0342983694        1.4512900314
 H         -5.2194003114        1.2762571787        0.2658676840
 H         -1.8659666411        3.3388550523       -0.8114168926
 H         -3.1980246137        4.1343196059       -1.6537135931
 H         -3.0160847837        1.9690660883       -2.5836536462
 H         -4.4763609975        1.9614916091       -1.5813356868
 O         -1.7380104480        0.3144934553       -1.4813822884
 C         -1.0705942420       -0.8119249458       -1.0132683381
 O         -0.0684277600       -1.1159703116       -1.6817336328
 H          0.3039057252       -0.5389460390        1.7735053734
 C          1.0453587997       -1.1976774355        1.3364860383
 C          0.6276767970       -2.3785111294        0.7332605195
 C          1.5893713347       -3.2093473956        0.1759298272
 C          2.9280772943       -2.8569962603        0.2139700680
 C          3.3360939728       -1.6725120391        0.7977250433
 C          2.3808292765       -0.8332566224        1.3572350573
 N          2.7780482278        0.3924682944        1.9315637047
 S          3.6208350502        1.4469773520        0.9362906918
 O          4.9672378996        0.9593481680        0.7733590435
 O          3.4868710867        2.7427088683        1.5649473348
 C          2.7684630368        1.4261445830       -0.6283151473
 C          1.6378754653        2.2055177931       -0.7704491234
 C          0.9475125156        2.1702845065       -1.9699975845
 C          1.3866996189        1.3479998357       -2.9949957620
 C          2.5204523553        0.5689178976       -2.8349147296
 C          3.2216404036        0.6067080210       -1.6413475255
 H          4.1107170110        0.0195424300       -1.4806434506
 H          2.8531666623       -0.0760035275       -3.6318725507
 H          0.8352880331        1.3092587938       -3.9209182159
 H          0.0619834050        2.7719009287       -2.1016743961
 H          1.3280207944        2.8333310573        0.0510310073
 H          2.0151134769        0.8869916322        2.3720681376
 H          4.3719855047       -1.3745606246        0.8183111031
 H          3.6640446826       -3.5113881802       -0.2279139463
 H          1.2917837265       -4.1223125238       -0.3124754360
 C         -0.8546033568       -2.6570301779        0.6984056223
 H         -1.2139621996       -2.7156213039        1.7401416253
 C         -1.2092407153       -3.9847860304        0.0464817474
 C         -2.5149738544       -4.1723513550       -0.6650318163
 C         -1.2341952039       -4.1607102316       -1.4413279206
 H         -0.8784089565       -5.0939588655       -1.8528835198
 H         -1.0052970874       -3.2987782595       -2.0476199029
 H         -3.0359387290       -5.1099069767       -0.5402021605
 H         -3.1703496580       -3.3171983230       -0.7450547037
 H         -0.8599451649       -4.8300731370        0.6316174254
 O         -3.1604931952       -1.4964296766        1.8671076112
