  62
        -98.94199296
 C         -1.3365459423       -1.1493559487        0.6896841186
 C         -2.1294686357       -0.9010776628       -0.4585343826
 C         -2.7819524746        0.4176551934       -0.5051967103
 C         -2.5459868825        1.3280579509        0.4539174849
 C         -3.0978908565        2.7266274856        0.5100515080
 C         -4.5089738039        2.8218090381        1.1066409120
 C         -5.6317429773        2.2941551087        0.2126366003
 H         -6.5745890420        2.6201539206        0.6562686059
 H         -5.5573626029        2.7568681173       -0.7719621074
 C         -5.6579761763        0.7665972448        0.0644041705
 H         -5.0582461376        0.3137582435        0.8571887432
 H         -6.6813075157        0.4057926020        0.1895677082
 C         -5.1584416809        0.2530299874       -1.2860832073
 H         -5.8278901284        0.5939854492       -2.0789656513
 H         -5.1848837872       -0.8395565651       -1.2697906556
 C         -3.7285585636        0.6859605551       -1.6357680018
 H         -3.3898557296        0.1021972615       -2.4955924890
 H         -3.7072138966        1.7419325982       -1.9058685993
 H         -4.5210138075        2.2881013613        2.0597126624
 H         -4.7037093704        3.8767320230        1.3131181227
 H         -2.4164892439        3.3028058448        1.1401059473
 H         -3.0903424204        3.1602328208       -0.4907343285
 O         -1.7290665931        1.0745684488        1.5109291242
 C         -1.1208265835       -0.1612106545        1.6535253511
 O         -0.4110181688       -0.2637477313        2.6755361092
 H          0.4376671726       -1.0246375109       -1.1610892979
 C          1.2184612939       -1.4509014413       -0.5494148718
 C          0.8935683321       -2.2137326971        0.5630475944
 C          1.9239899104       -2.7411429677        1.3326848697
 C          3.2456783273       -2.5134236133        0.9922033592
 C          3.5642307554       -1.7251650533       -0.0991768363
 C          2.5408824592       -1.1819348286       -0.8661309102
 N          2.8102818550       -0.3167750810       -1.9493785425
 S          2.2594320986        1.2570492424       -1.7530504786
 O          0.8209228112        1.2797195837       -1.7115789363
 O          2.8863747766        2.0091648527       -2.8182586350
 C          2.9425517700        1.7474040486       -0.1803157589
 C          2.2447543729        1.4535980174        0.9734129163
 C          2.8217764806        1.7448497683        2.1993299265
 C          4.0809570387        2.3224529967        2.2500851288
 C          4.7683382238        2.6166508182        1.0815771728
 C          4.1992022115        2.3211132682       -0.1464091848
 H          4.6954874694        2.5350140552       -1.0793738499
 H          5.7458423041        3.0693195780        1.1248615615
 H          4.5266287916        2.5446486190        3.2067610497
 H          2.2755962351        1.5064181003        3.0983954166
 H          1.2661277666        1.0043275571        0.9073266683
 H          3.7866238305       -0.2927830750       -2.2128190708
 H          4.5940272214       -1.5218989286       -0.3510962676
 H          4.0356284971       -2.9333329724        1.5954288817
 H          1.6834630237       -3.3165650034        2.2142937458
 C         -0.5536587138       -2.4317667621        0.9306990565
 H         -0.5877238586       -2.6050399521        2.0194537544
 C         -1.1503065585       -3.6578129813        0.2574663923
 C         -0.5858574260       -4.2527858241       -0.9936783342
 C         -0.4373141755       -4.9767144187        0.3087842575
 H         -1.0224740003       -5.8687548508        0.4731751630
 H          0.5449082170       -5.0021047539        0.7547571810
 H         -1.2820073471       -4.6266414507       -1.7285309741
 H          0.2874135855       -3.7872774962       -1.4248480343
 H         -2.2299625055       -3.6861458194        0.3561396189
 O         -2.3037745379       -1.7123215919       -1.4028779921
