  62
        -98.94547314
 C         -2.6603357993       -1.0365658206        0.2638391595
 C         -2.5093793896       -0.2766009099       -0.9218527601
 C         -3.0879352700        1.0745442099       -0.8930234293
 C         -3.7234137201        1.4978759291        0.2147012409
 C         -4.3044801305        2.8691808588        0.4000511617
 C         -3.2817169007        3.8226806988        1.0339898621
 C         -1.9109846107        3.8004782896        0.3562165820
 H         -1.2797350109        4.5298385095        0.8692269323
 H         -1.4469825504        2.8219604696        0.5063664415
 C         -1.9389133009        4.1163609504       -1.1456807078
 H         -2.8765288911        4.6111225702       -1.4027995575
 H         -1.1288980212        4.8136645207       -1.3694919275
 C         -1.7403738406        2.9008410409       -2.0535517585
 H         -1.5578031308        3.2628931415       -3.0690260483
 H         -0.8469726605        2.3515806910       -1.7405995388
 C         -2.9198691004        1.9216928706       -2.1221486189
 H         -3.8384130205        2.4682607704       -2.3454269685
 H         -2.7237016702        1.2245421411       -2.9419269993
 H         -3.6864330610        4.8357137387        1.0016540427
 H         -3.1489535805        3.5428159183        2.0817010020
 H         -4.6269244106        3.2547378892       -0.5649051481
 H         -5.1705778404        2.7900849082        1.0591837717
 O         -3.8631185597        0.7319770585        1.3275809705
 C         -3.3125623894       -0.5388506314        1.3903388698
 O         -3.4654456791       -1.1127635020        2.4885418996
 O         -1.9215898295       -0.7015666892       -1.9496939303
 C         -2.0372538489       -2.4188996605        0.3555398788
 C         -0.5489589289       -2.2990183999        0.1295948187
 C          0.1654927113       -3.0895362592       -0.7597268517
 C          1.5223397912       -2.8838411087       -0.9448676017
 C          2.1945405609       -1.8962360189       -0.2488128513
 C          1.4916165408       -1.1090181395        0.6541917792
 C          0.1362163608       -1.3215539401        0.8415939392
 H         -0.4115586893       -0.7006299406        1.5419072195
 N          2.1685024505       -0.0986481297        1.3700567597
 S          2.8536418901        1.1262449610        0.4375095603
 O          2.9337409798        2.2722613205        1.3179617809
 O          2.1346278599        1.3158749014       -0.8008375296
 C          4.4974360402        0.5253768516        0.1140411598
 C          4.9225708502        0.3407275925       -1.1866759903
 C          6.2070324503       -0.1312286170       -1.4100296006
 C          7.0375294305       -0.4083518874       -0.3348878308
 C          6.5955585305       -0.2147410982        0.9656785093
 C          5.3133788204        0.2574461513        1.1959451196
 H          4.9303457304        0.4255046907        2.1886144497
 H          7.2443102606       -0.4313706384        1.7989946191
 H          8.0355916106       -0.7770480070       -0.5116273711
 H          6.5524184603       -0.2820073664       -2.4201882107
 H          4.2381319001        0.5630089027       -1.9898646601
 H          1.5991475204        0.3164641797        2.0948121399
 H          3.2484778209       -1.7271393785       -0.3984901113
 H          2.0629870913       -3.4993440282       -1.6474867421
 H         -0.3426330986       -3.8567088491       -1.3203232521
 H         -2.2025231487       -2.7611565310        1.3876920986
 C         -2.7242509486       -3.3770338302       -0.5937843117
 C         -2.7623374582       -4.8432148803       -0.2872491224
 C         -4.0083322084       -4.0196855908       -0.1665545019
 H         -4.7887512184       -4.1497159406       -0.9010877819
 H         -4.3752937784       -3.7833504514        0.8219089082
 H         -2.6907107980       -5.5432408399       -1.1058157128
 H         -2.2863480480       -5.1762548907        0.6225732073
 H         -2.6392005988       -3.0686051596       -1.6292247715
