  62
        -98.94492940
 C         -2.1969139741       -0.9454328545        0.5471812325
 C         -2.3481338321       -0.1504065753       -0.6149526876
 C         -3.1622271576        1.0614775863       -0.4535041792
 C         -3.6587853722        1.3798591758        0.7555466199
 C         -4.4903578199        2.5907222378        1.0818398214
 C         -5.9858111330        2.4183429078        0.7816683168
 C         -6.3571354748        2.4259168542       -0.7017502304
 H         -7.4434542772        2.5186946674       -0.7589082305
 H         -5.9294734227        3.3091304476       -1.1772366466
 C         -5.9285651536        1.1673147145       -1.4691061927
 H         -5.7041027064        0.3670177582       -0.7602461372
 H         -6.7566002721        0.8209744925       -2.0915405127
 C         -4.7232941452        1.3646835740       -2.3887786712
 H         -4.9797392640        2.0674660051       -3.1845644028
 H         -4.4839112285        0.4041186400       -2.8518266789
 C         -3.4625657814        1.8732323892       -1.6770644979
 H         -2.6146198445        1.7696297480       -2.3590805456
 H         -3.5743151719        2.9262150843       -1.4184639681
 H         -6.3280811999        1.4869375218        1.2384729981
 H         -6.5122262130        3.2414266856        1.2702844538
 H         -4.3723464788        2.7696361847        2.1528511817
 H         -4.1058137631        3.4561969194        0.5412460632
 O         -3.4349988804        0.6210095776        1.8621811529
 C         -2.7182975928       -0.5630694778        1.7822158290
 O         -2.6048094853       -1.1687368597        2.8681928025
 O         -1.8348376016       -0.4349378161       -1.7276850467
 C         -1.4116391946       -2.2433833574        0.4806088499
 C          0.0120988073       -1.9614674306        0.0642051392
 C          0.6696760710       -2.6533568834       -0.9437075479
 C          1.9736327466       -2.3301550675       -1.2783901951
 C          2.6509713036       -1.3248138122       -0.6138172963
 C          2.0044670911       -0.6297641386        0.4003083779
 C          0.6987082249       -0.9547748059        0.7323969371
 H          0.1936321317       -0.4099657949        1.5217490009
 N          2.6894261044        0.3812961200        1.0979508724
 S          3.4734376781        1.5708199880        0.2077389291
 O          3.5381245181        2.7168694331        1.0891126935
 O          2.8437232137        1.7806024899       -1.0751541088
 C          5.1154818751        0.9176954439       -0.0131183945
 C          5.8381122397        0.5781172236        1.1139361353
 C          7.1182821614        0.0706326382        0.9600028000
 C          7.6523598563       -0.0848358559       -0.3106267598
 C          6.9157538785        0.2650031505       -1.4319286263
 C          5.6339549864        0.7723663313       -1.2849504642
 H          5.0216136107        1.0529971279       -2.1272887879
 H          7.3325341379        0.1441813283       -2.4189028312
 H          8.6488628641       -0.4804463715       -0.4276838843
 H          7.6942401382       -0.2018717776        1.8296599425
 H          5.3878400602        0.7186404591        2.0823818053
 H          2.1450561506        0.7985432021        1.8392463337
 H          3.6644594299       -1.0683306143       -0.8750654472
 H          2.4701049156       -2.8706513720       -2.0697440182
 H          0.1587262612       -3.4386693721       -1.4756413887
 H         -1.3917956493       -2.6392253733        1.5067248178
 C         -2.1225397254       -3.2378876208       -0.4130275790
 C         -1.9691776519       -4.7093754318       -0.1765250955
 C         -3.2631383609       -4.0285112159        0.1513065223
 H         -4.1211894387       -4.2162924112       -0.4765747161
 H         -3.5107426817       -3.8680589430        1.1908885613
 H         -1.9416399463       -5.3690471927       -1.0305690941
 H         -1.3399053719       -5.0207824867        0.6433329270
 H         -2.2145708978       -2.8872713010       -1.4344712007
