  62
        -98.93070565
 C          2.3719092642        1.0657682693       -0.1374773433
 C          2.4732245758       -0.2241074781        0.4354292917
 C          3.8351506589       -0.6773198692        0.7846598047
 C          4.8751327120        0.1509898120        0.5917160009
 C          6.3323920130       -0.1343168943        0.8281139284
 C          7.0040893714       -0.6315970269       -0.4631023926
 C          6.9143401789       -2.1393279217       -0.6955796616
 H          7.3057547826       -2.3375003042       -1.6960209841
 H          7.5636919155       -2.6513360473        0.0176186322
 C          5.5083091417       -2.7362694726       -0.5914770692
 H          4.7928860409       -2.0857901270       -1.0981606896
 H          5.5094112603       -3.6893794244       -1.1240192235
 C          5.0606310458       -2.9783315001        0.8578133225
 H          5.9244828197       -2.8884888069        1.5162207902
 H          4.7008717144       -4.0044799972        0.9573243964
 C          3.9320649555       -2.0643491963        1.3594321273
 H          2.9638385978       -2.5237737004        1.1362758863
 H          3.9937398924       -1.9862215121        2.4499464195
 H          6.5484452379       -0.1012834689       -1.3033988099
 H          8.0601793560       -0.3556061111       -0.4377659971
 H          6.7918948241        0.8133458342        1.1164468520
 H          6.4594322635       -0.8469304246        1.6374767798
 O          4.7261349585        1.4059443868        0.0839644896
 C          3.4880384288        1.8921062622       -0.2894186163
 O          3.5064641350        3.0602277924       -0.7264333182
 O          1.4876951340       -0.9772549111        0.6474701709
 C          1.0365941512        1.6518596502       -0.5607821608
 C         -0.0113508007        1.3989562979        0.4948601313
 C          0.1868499422        1.9246936480        1.7696722838
 C         -0.7497048479        1.7347716427        2.7663137842
 C         -1.9163524360        1.0362365220        2.5080689244
 C         -2.1207474589        0.5032651056        1.2417827985
 C         -1.1702963112        0.6829939504        0.2461660098
 H         -1.3490988165        0.2389518504       -0.7188209826
 N         -3.2814048505       -0.2306762742        0.9485855103
 S         -3.9595892869       -0.0586205023       -0.5872476116
 O         -3.3426573586       -1.0003303822       -1.4870503942
 O         -3.9190387196        1.3291978741       -0.9917321761
 C         -5.6420369879       -0.5548119532       -0.2609719955
 C         -5.9546296819       -1.9011657658       -0.2651054501
 C         -7.2550670759       -2.2875621453        0.0181647088
 C         -8.2157581231       -1.3274786253        0.2996178849
 C         -7.8877208288        0.0199776002        0.2980698891
 C         -6.5887964623        0.4132819698        0.0168299614
 H         -6.2900119628        1.4490211319       -0.0052881926
 H         -8.6374759225        0.7640828988        0.5136104876
 H         -9.2272798136       -1.6311904529        0.5183529753
 H         -7.5143611369       -3.3339906681        0.0175192475
 H         -5.1773691710       -2.6100812324       -0.4987105223
 H         -3.9784099307       -0.1792580663        1.6786337070
 H         -2.6536114578        0.8942121258        3.2837253144
 H         -0.5772693310        2.1437862645        3.7506963480
 H          1.0946326599        2.4795656119        1.9679079010
 H          1.2058700358        2.7415317830       -0.6039008042
 C          0.5878943685        1.2306070356       -1.9522328071
 C          1.5826970522        0.9120355056       -3.0269120852
 C          0.7305765456       -0.1754071484       -2.4482949939
 H         -0.0673284305       -0.5864625924       -3.0503082702
 H          1.1864947035       -0.8939154647       -1.7857271480
 H          1.3778536360        1.2504889422       -4.0314397597
 H          2.6297785678        0.9383254598       -2.7615369527
 H         -0.3041639031        1.7659665494       -2.2669104941
