  62
        -98.93779198
 C         -2.4664503871       -0.9083382248        0.7252276588
 C         -3.5289850739       -0.9447472580       -0.2107049609
 C         -4.6792523294       -0.0773336393        0.0907897932
 C         -4.6622048858        0.6948448451        1.1914685913
 C         -5.7401179293        1.6638323421        1.5802647213
 C         -5.4690974005        3.0604199947        1.0034974305
 C         -5.1337092230        3.0593455834       -0.4879992987
 H         -4.1788585091        2.5501347474       -0.6391821544
 H         -4.9931400723        4.0994270187       -0.7903324633
 C         -6.2011260174        2.4082396427       -1.3785415291
 H         -6.3665540095        3.0457898406       -2.2496093660
 H         -7.1466949513        2.3459925086       -0.8386226699
 C         -5.8269114233        1.0219837077       -1.9061463240
 H         -4.8361557398        1.0601444590       -2.3662231206
 H         -6.5407248705        0.7521953318       -2.6891274420
 C         -5.8341807608       -0.1095433399       -0.8707144741
 H         -5.7465049347       -1.0553350441       -1.4132258174
 H         -6.7837748551       -0.1094269950       -0.3318734984
 H         -4.6269978167        3.5005038847        1.5425952620
 H         -6.3482206065        3.6829153267        1.1798772090
 H         -5.7665326824        1.7293206759        2.6692865157
 H         -6.6995908579        1.2928885376        1.2251471318
 O         -3.6212531408        0.7120252715        2.0623059806
 C         -2.5067098453       -0.0783766644        1.8502834941
 O         -1.6268254122        0.0358859844        2.7280385115
 O         -3.5447328522       -1.6573533340       -1.2487420610
 C         -1.2028773481       -1.7437617815        0.5856454371
 C         -0.2331733548       -1.0874995935       -0.3689816965
 C         -0.4959521847       -1.0010997791       -1.7319139062
 C          0.4129199519       -0.3969911352       -2.5817037615
 C          1.5956725155        0.1319414831       -2.0956905179
 C          1.8661245948        0.0539599050       -0.7362305697
 C          0.9548550901       -0.5589304362        0.1149901254
 H          1.1618551583       -0.6089892189        1.1759137394
 N          3.0555286520        0.6085728906       -0.2297148487
 S          4.4745546634        0.3063429712       -1.0971211565
 O          4.5665520766        1.2659957992       -2.1687731639
 O          4.5266361623       -1.0841405835       -1.4891120660
 C          5.7134990973        0.6523100296        0.1355398622
 C          6.2151692559       -0.3881487730        0.8945221301
 C          7.1607243774       -0.1113789878        1.8692735341
 C          7.5838227227        1.1941499606        2.0691039248
 C          7.0711542590        2.2276466897        1.2991231816
 C          6.1259740056        1.9579150006        0.3221579163
 H          5.7065612497        2.7268396209       -0.3054100350
 H          7.4050180810        3.2405939925        1.4561552751
 H          8.3201393860        1.4066571876        2.8280487563
 H          7.5632743080       -0.9129576407        2.4674730094
 H          5.8651753381       -1.3890274014        0.6979840433
 H          3.1782914981        0.4131419787        0.7544595001
 H          2.3140722115        0.5987360671       -2.7505759482
 H          0.1986513894       -0.3362654343       -3.6384327727
 H         -1.4237677880       -1.3969561522       -2.1149747296
 H         -0.7400401156       -1.7408316290        1.5817636773
 C         -1.4722831147       -3.1831014417        0.1928553593
 C         -0.4183196270       -4.2128908568        0.4622400797
 C         -1.6839388073       -4.2069860181        1.2650800029
 H         -2.4086831845       -4.9886646730        1.0942199702
 H         -1.6354788564       -3.8739030727        2.2918603429
 H         -0.2703562445       -4.9994481830       -0.2616135083
 H          0.4904638826       -3.8843641172        0.9440293184
 H         -2.0561943124       -3.2839736581       -0.7116391853
