  62
        -98.93925640
 C         -2.5561967312       -0.2861089544        0.0495949235
 C         -2.1985222463       -1.2875802586       -0.8811772720
 C         -1.5517009407       -2.4927666156       -0.3380996848
 C         -1.3538522293       -2.5910280948        0.9880228288
 C         -0.7712769733       -3.7380074147        1.7776437712
 C          0.4418275033       -4.4712227219        1.1951847201
 C          1.4452759849       -3.5757649373        0.4539854754
 H          1.2270321789       -2.5220682447        0.6400770173
 H          2.4480117057       -3.7702522861        0.8404709420
 C          1.4691839855       -3.8272113653       -1.0551888036
 H          1.4516669786       -4.9049559540       -1.2362257280
 H          2.4070493836       -3.4370465761       -1.4586760372
 C          0.3380661200       -3.1676005220       -1.8419489902
 H          0.4674324868       -2.0807044559       -1.8183270294
 H          0.4294752056       -3.4755506069       -2.8871105414
 C         -1.0845926636       -3.4942453379       -1.3550128898
 H         -1.7637266662       -3.3951030621       -2.2066325241
 H         -1.1471032098       -4.5128943896       -0.9791294004
 H          0.9416433865       -4.9605667017        2.0332199345
 H          0.1056321599       -5.2612816820        0.5249410229
 H         -1.5721688860       -4.4616330133        1.9597066731
 H         -0.5028270892       -3.3041620956        2.7440200331
 O         -1.7385333636       -1.6105426420        1.8534381344
 C         -2.2885676436       -0.4205977901        1.4106439993
 O         -2.5101281238        0.4107685683        2.3129595718
 O         -2.4163880988       -1.1808003590       -2.1205773303
 C         -3.0954597070        1.0367083505       -0.4627991038
 C         -2.0785431251        2.1219829707       -0.1952339214
 C         -2.4079384931        3.4188344100        0.1741475450
 C         -1.4110933615        4.3542758494        0.4023527456
 C         -0.0751588248        4.0167592656        0.2932276475
 C          0.2645330779        2.7173569227       -0.0726471540
 C         -0.7349489542        1.8018875621       -0.3456768125
 H         -0.4603273082        0.8072513425       -0.6644175855
 N          1.6110171899        2.3112879891       -0.1178829977
 S          2.0184499617        0.7035155015       -0.3604806745
 O          1.7769081711        0.2996060724       -1.7303086473
 O          1.3964290373       -0.0852401323        0.6716895555
 C          3.7749419377        0.7998254957       -0.0740313522
 C          4.2281685568        0.8377503605        1.2308404694
 C          5.5898985228        0.9421459365        1.4652574491
 C          6.4716781023        1.0073346376        0.3963857734
 C          6.0028766772        0.9650584403       -0.9078285768
 C          4.6415981696        0.8611953916       -1.1483764190
 H          4.2314066341        0.8148077418       -2.1443865604
 H          6.6906102239        1.0121227689       -1.7367111051
 H          7.5310688353        1.0884186800        0.5816856748
 H          5.9576462801        0.9714269991        2.4782729976
 H          3.5047799423        0.7747210149        2.0274297177
 H          2.2489069450        2.9682197526       -0.5405926338
 H          0.6987610140        4.7402126700        0.4951573281
 H         -1.6817492705        5.3606538082        0.6839084708
 H         -3.4432467099        3.6971194394        0.2865668878
 H         -3.1834337636        0.9136483392       -1.5537772676
 C         -4.4642308078        1.3395013956        0.1078884431
 C         -5.4612772388        2.1232838313       -0.6910862758
 C         -5.6602230684        0.6535747725       -0.4793356208
 H         -6.4447570760        0.3264423349        0.1860664395
 H         -5.4878970432       -0.0127834733       -1.3121611646
 H         -6.1151657146        2.8066645585       -0.1706886065
 H         -5.1644507079        2.4554818532       -1.6745271386
 H         -4.4428718623        1.4769158948        1.1828947993
