  62
        -98.93993612
 C         -0.2529845128       -1.8560151108        0.2127814642
 C         -1.3578392859       -1.7574633943        1.0921985583
 C         -2.5731751392       -1.1128913704        0.5660628665
 C         -2.5593041866       -0.5988444231       -0.6780364944
 C         -3.6611395774        0.0247052308       -1.5089757552
 C         -4.9608159777        0.4937319602       -0.8601307556
 C         -4.8131475923        1.6777141203        0.0949952244
 H         -4.5793662154        2.5709573163       -0.4892657331
 H         -5.7757112381        1.8455985819        0.5829763676
 C         -3.7342215411        1.5305888095        1.1650403942
 H         -2.7534062979        1.4444227376        0.6929930090
 H         -3.7236905189        2.4474115959        1.7614366306
 C         -3.9202210720        0.3576302189        2.1254178199
 H         -3.1739340316        0.4629801625        2.9184309066
 H         -4.9081221482        0.4103133132        2.5877443528
 C         -3.7422772058       -1.0390050985        1.5054383373
 H         -3.5307879940       -1.7424517042        2.3163365378
 H         -4.6539439814       -1.3720693835        1.0145847940
 H         -5.6194645924        0.8075364801       -1.6744486835
 H         -5.4531685153       -0.3360101659       -0.3613635029
 H         -3.1969990186        0.8624192827       -2.0359463378
 H         -3.9100346960       -0.7213927553       -2.2719895899
 O         -1.4400510994       -0.6378274688       -1.4561706421
 C         -0.2680986956       -1.2552385783       -1.0452108882
 O          0.6523857899       -1.1924441779       -1.8793542609
 O         -1.3393719470       -2.2116643315        2.2686971744
 C          0.9911304085       -2.5666870800        0.7113833730
 C          2.2239440096       -1.7603549410        0.3893363614
 C          3.3363655191       -2.2751215122       -0.2633553290
 C          4.4306147673       -1.4685556100       -0.5237181386
 C          4.4354827319       -0.1374632343       -0.1526451047
 C          3.3249300663        0.3878098799        0.5007694788
 C          2.2404922345       -0.4262883964        0.7794050226
 H          1.3862650116       -0.0107577640        1.2950390813
 N          3.3003605636        1.7369229907        0.8851057186
 S          1.8894250131        2.5979001894        1.0397036892
 O          2.3273637113        3.9775394507        1.1055422529
 O          1.1364868188        2.1350030393        2.1805085208
 C          0.9157043612        2.3965966630       -0.4438562870
 C          1.4586435400        1.9437207884       -1.6279035479
 C          0.6549186359        1.8956506297       -2.7564915825
 C         -0.6619784713        2.3179568851       -2.6902089625
 C         -1.1902815058        2.7826017593       -1.4956729714
 C         -0.3974432299        2.8166639435       -0.3614598981
 H         -0.7703242708        3.1582347966        0.5916762872
 H         -2.2139911233        3.1182322128       -1.4404684134
 H         -1.2799970219        2.2804771889       -3.5738101446
 H          1.0619295280        1.5180288450       -3.6801603073
 H          2.4819335095        1.6090812131       -1.6710641694
 H          4.0570093255        2.3062340626        0.5367558200
 H          5.2835461199        0.4946644227       -0.3675169879
 H          5.2876790670       -1.8802311648       -1.0345842104
 H          3.3424376696       -3.3022273923       -0.5877903354
 H          0.8781576139       -2.5795571521        1.8092171476
 C          1.0882051527       -4.0196483012        0.2668544381
 C         -0.1313461108       -4.7951975336       -0.1299593688
 C          0.8886038265       -4.4244807165       -1.1621137882
 H          1.5136560300       -5.2068290830       -1.5670616429
 H          0.6469958489       -3.6457620321       -1.8683045697
 H         -0.2027325662       -5.8273810605        0.1790968529
 H         -1.0784530120       -4.2753480185       -0.1346251683
 H          1.8371093595       -4.5680771453        0.8299940226
