  62
        -98.93908029
 C         -2.6172523601       -0.1850905676       -0.4263815593
 C         -2.2507467505       -0.8163950182        0.7867881705
 C         -1.6574528314       -2.1543738585        0.6624132801
 C         -1.5204920119       -2.7028237583       -0.5580760000
 C         -0.8203554228       -3.9982110187       -0.8553756804
 C          0.7058675173       -3.7711885398       -0.8526235905
 C          1.4512047869       -4.5053416806        0.2624316692
 H          1.5156766062       -5.5661938306        0.0093018289
 H          2.4672065172       -4.1060561113        0.2849125092
 C          0.8386805172       -4.3914306405        1.6621193493
 H          1.6080719470       -4.7004160412        2.3728873691
 H          0.0186287867       -5.1047021400        1.7611199892
 C          0.3288829482       -2.9998679303        2.0603449197
 H          0.5826090484       -2.8288116707        3.1086995097
 H          0.8258983186       -2.2222817605        1.4782727199
 C         -1.1961341617       -2.8215442192        1.9272940499
 H         -1.6950513424       -3.7881419789        2.0398387897
 H         -1.5469175812       -2.1703404791        2.7332105101
 H          0.8958577981       -2.6981384999       -0.7705119503
 H          1.1222793570       -4.0892516598       -1.8103735007
 H         -1.0989829233       -4.7472990587       -0.1173775506
 H         -1.1530378131       -4.3323503082       -1.8386381305
 O         -1.9401746816       -2.0891548877       -1.6967518598
 C         -2.4552197607       -0.8033724074       -1.6632545395
 O         -2.7370782805       -0.3305473569       -2.7858605493
 H         -0.4385901294        0.9409529510       -0.5959342092
 C         -0.6834219287        1.7850283710        0.0324744110
 C         -2.0159450385        2.1158989718        0.2434240412
 C         -2.3043983077        3.2241493418        1.0289085716
 C         -1.2799344971        3.9618129810        1.5988045617
 C          0.0429076626        3.6059753401        1.4148319814
 C          0.3418934618        2.4944619601        0.6321887311
 N          1.6692626815        2.0617523792        0.4840167409
 S          2.0889682305        0.8483921292       -0.5963930695
 O          1.7863386807        1.2431552298       -1.9565122494
 O          1.5259312097       -0.3996748505       -0.1484036797
 C          3.8544754106        0.8343403379       -0.3522172497
 C          4.3803668501        0.0691781373        0.6711908101
 C          5.7503495102        0.0798718463        0.8804430100
 C          6.5670898906        0.8533233660        0.0690687901
 C          6.0255522510        1.6151665966       -0.9554294797
 C          4.6563143510        1.6079020676       -1.1702043295
 H          4.1919524513        2.1734188381       -1.9621197893
 H          6.6631144514        2.2126905063       -1.5868500696
 H          7.6328451306        0.8598419252        0.2340807400
 H          6.1747677798       -0.5140709842        1.6736569198
 H          3.7064658998       -0.5202387624        1.2712632700
 H          2.3604725620        2.7938974287        0.5520288710
 H          0.8375714131        4.1694896494        1.8783532815
 H         -1.5177508564        4.8227579910        2.2050487319
 H         -3.3305742774        3.5071297025        1.1986304117
 C         -3.0792283892        1.2598137227       -0.4069618889
 H         -3.1705340390        1.5662695831       -1.4605561188
 C         -4.4344430290        1.3862376435        0.2586275213
 C         -5.4099612783        2.4287939843       -0.1964034383
 C         -5.6551977294        0.9847549545       -0.5116813087
 H         -6.4466167997        0.4668937949        0.0087450513
 H         -5.5071848897        0.6481233747       -1.5278783488
 H         -5.1091540380        3.0769415143       -1.0058602482
 H         -6.0391152579        2.9030869345        0.5416659818
 H         -4.4011968891        1.1361602232        1.3126560812
 O         -2.3994822500       -0.2810636183        1.9171217407
