  62
        -98.93795240
 C          1.4997124389        0.9093935091        0.3581038374
 C          2.8056570343        1.0973949885        0.8726826520
 C          3.9161407034        0.6887788422        0.0004220808
 C          3.6391792271        0.1572386827       -1.2041684698
 C          4.6530915889       -0.3858212468       -2.1708014809
 C          5.1314096780       -1.7768795309       -1.7080637009
 C          6.6063795951       -1.8363010799       -1.3098255060
 H          6.7704107361       -2.7914533582       -0.8063301151
 H          7.2182797124       -1.8316267734       -2.2143180867
 C          7.0994928227       -0.7035760925       -0.4043531659
 H          7.2894628459        0.1884451898       -1.0030503648
 H          8.0637966431       -1.0176616327        0.0006929137
 C          6.1754198201       -0.3255917088        0.7604126209
 H          5.5309086548       -1.1634520694        1.0275625971
 H          6.7976774979       -0.1129199527        1.6320971094
 C          5.3105129165        0.9243252924        0.5121412835
 H          5.1737111423        1.4476822706        1.4630410666
 H          5.8369172737        1.6036084141       -0.1639807465
 H          4.9628451384       -2.5032000207       -2.5047395461
 H          4.5114865554       -2.0892218209       -0.8647562726
 H          4.1680376088       -0.4561270144       -3.1446011849
 H          5.4926614787        0.3015832430       -2.2477336388
 O          2.3720165347       -0.0178432043       -1.6600646801
 C          1.2704547203        0.3503571240       -0.8991245752
 O          0.1767425421        0.1418372580       -1.4560057945
 H         -2.1912791013        0.3749703971        0.5762581347
 C         -1.6615056462       -0.2843423512        1.2395470017
 C         -0.3896649976        0.0470815674        1.6758174064
 C          0.2663535906       -0.8233181403        2.5438354689
 C         -0.3394183228       -1.9923175875        2.9605401640
 C         -1.6046165101       -2.3272460532        2.5070134119
 C         -2.2643648071       -1.4708114918        1.6361370405
 N         -3.5565780942       -1.7635420161        1.1616087189
 S         -3.7945190779       -1.7731753485       -0.5058578891
 O         -5.0259824912       -2.5173074770       -0.6801725668
 O         -2.6403481647       -2.2992336207       -1.1959295594
 C         -4.0933541596       -0.0724771588       -0.9341660146
 C         -3.2014116620        0.6065979703       -1.7407189671
 C         -3.4665168977        1.9311459524       -2.0546370632
 C         -4.6064277788        2.5470931646       -1.5609266155
 C         -5.4918495944        1.8478063281       -0.7540997554
 C         -5.2363997155        0.5235064094       -0.4377362168
 H         -5.8995629769       -0.0595503006        0.1791503242
 H         -6.3760537661        2.3311655831       -0.3710347208
 H         -4.8029546394        3.5791316364       -1.8061967931
 H         -2.7735358422        2.4749123283       -2.6774260906
 H         -2.3061178391        0.1060861507       -2.0774094813
 H         -3.9605741531       -2.5971207576        1.5665600777
 H         -2.0756147138       -3.2460865792        2.8234179226
 H          0.1781122442       -2.6547319662        3.6383321325
 H          1.2596517516       -0.5672174130        2.8863164083
 C          0.3187283296        1.3029452623        1.2304863059
 H          0.7620578807        1.7731521279        2.1198535234
 C         -0.5827244172        2.3043662023        0.5415438935
 C         -1.5700757092        3.0924719336        1.3478907514
 C         -0.3657905638        3.7691799924        0.7672415393
 H         -0.5019162445        4.4431226007       -0.0649264157
 H          0.4313310662        4.0585569260        1.4364130070
 H         -1.5906775790        2.9219554141        2.4134971027
 H         -2.5370355679        3.2989495062        0.9146998590
 H         -0.8760136718        1.9947757802       -0.4540106039
 O          3.0321594179        1.5887479203        2.0113280330
