  62
        -98.93831440
 C         -2.1945593323       -0.8955570969       -0.0874731980
 C         -2.9165843441       -0.2227349430        0.9232800242
 C         -3.7294553754        0.9309446920        0.4993368933
 C         -3.7332502710        1.2940392215       -0.7972578904
 C         -4.4242500936        2.4383114658       -1.5096621861
 C         -5.5456428211        3.2203598221       -0.8306272525
 C         -6.8269310990        2.4228480985       -0.5898408040
 H         -7.5149138422        3.0474121874       -0.0158701726
 H         -7.2934493987        2.2151684313       -1.5560562610
 C         -6.6482369687        1.0888478443        0.1306673627
 H         -6.0431211131        0.4181673954       -0.4827431006
 H         -7.6350090681        0.6290367386        0.2321048103
 C         -6.0321945328        1.1761432161        1.5256103364
 H         -6.1111083899        0.1860204271        1.9827084855
 H         -6.6062590578        1.8734702580        2.1388263978
 C         -4.5505678672        1.5886821327        1.5709596628
 H         -4.4392526266        2.6698311072        1.5320035827
 H         -4.1353225728        1.2516773143        2.5255466885
 H         -5.1908937233        3.6607312331        0.0966067512
 H         -5.7944829520        4.0492415545       -1.4988901404
 H         -3.6289346636        3.1406849492       -1.7829005228
 H         -4.7990239102        2.0190293503       -2.4487290463
 O         -2.9914057672        0.6311845977       -1.7327140369
 C         -2.2143683298       -0.4706925183       -1.4146707351
 O         -1.6053504641       -0.9656706634       -2.3804428660
 O         -2.8757637701       -0.5619134409        2.1381195955
 C         -1.3496356069       -2.1003114011        0.2815535748
 C          0.1015568676       -1.8451158208       -0.0457513289
 C          0.9123719811       -2.7658126933       -0.6956315032
 C          2.2401644746       -2.4708138682       -0.9539963531
 C          2.7881668033       -1.2614396587       -0.5698372682
 C          1.9908455870       -0.3386282137        0.0951966400
 C          0.6629759624       -0.6386450117        0.3556285759
 H          0.0430614654        0.0814552739        0.8768197779
 N          2.5368946715        0.8973583625        0.4853124347
 S          3.9656364634        0.8871057130        1.3690641879
 O          4.0988594409       -0.3251997564        2.1432631781
 O          3.9582990878        2.1280104206        2.1128801722
 C          5.2392432360        0.9630913877        0.1274851713
 C          6.2125059702       -0.0155430157        0.0772811941
 C          7.1984922028        0.0695677891       -0.8934862775
 C          7.1942064846        1.1265030655       -1.7907500583
 C          6.2110645491        2.1027441109       -1.7250189463
 C          5.2229920110        2.0239020934       -0.7567599355
 H          4.4438449467        2.7627651813       -0.6694230436
 H          6.2109035855        2.9231607986       -2.4244977975
 H          7.9616388019        1.1904412276       -2.5458983803
 H          7.9637918948       -0.6879991384       -0.9462156320
 H          6.1727071055       -0.8209536666        0.7932131902
 H          1.8648324904        1.5202987961        0.9094296164
 H          3.8193312187       -1.0261291918       -0.7763173762
 H          2.8562416795       -3.1932818186       -1.4671128792
 H          0.5043416267       -3.7137996962       -1.0049986215
 H         -1.4368850437       -2.1951748603        1.3747943877
 C         -1.9078416806       -3.3528302897       -0.3608658209
 C         -1.7279748703       -4.6861724141        0.2993610286
 C         -3.0769456637       -4.0343127605        0.2825889593
 H         -3.8454338004       -4.4497416872       -0.3518183325
 H         -3.4531982826       -3.6097407393        1.2021126084
 H         -1.5724707911       -5.5537402187       -0.3239525228
 H         -1.1897038000       -4.7121952842        1.2348589293
 H         -1.8889221895       -3.3077410141       -1.4439729321
