  62
        -98.94588759
 C         -1.6930775916       -1.3031346667        0.4196070839
 C         -1.2982675422       -0.2175661832       -0.3985148640
 C         -1.8877803548        1.0844592109       -0.0656932043
 C         -2.6936305005        1.2027802130        1.0035755754
 C         -3.3460369409        2.4691108119        1.4881732511
 C         -4.6515441637        2.8209946969        0.7610870415
 C         -4.4847601862        3.3249233119       -0.6731547454
 H         -5.4473537588        3.7387028339       -0.9800817476
 H         -3.7600849667        4.1395594434       -0.6871356830
 C         -4.0677504466        2.2442466998       -1.6803660900
 H         -4.2549884881        1.2568816777       -1.2520382256
 H         -4.6842625799        2.3261573155       -2.5782016498
 C         -2.6069025051        2.3223107658       -2.1237149657
 H         -2.4387067871        3.2535678087       -2.6687475217
 H         -2.4112434335        1.4914363301       -2.8059751591
 C         -1.5948500778        2.2408461525       -0.9731762920
 H         -0.5988887721        2.0877563335       -1.3959144675
 H         -1.5881030305        3.1722636052       -0.4070165952
 H         -5.3008163176        1.9422997776        0.7663382103
 H         -5.1460462387        3.6022265111        1.3430308768
 H         -3.5700025347        2.3162601236        2.5463967047
 H         -2.6412314125        3.2970516907        1.4020967673
 O         -2.9997653610        0.1485050216        1.8067879226
 C         -2.5078329902       -1.1183780859        1.5381319546
 O         -2.8591202032       -1.9879535377        2.3626010985
 H          0.6221353119       -1.4155340244        1.6995813554
 C          1.1041188022       -1.8920497503        0.8572978802
 C          0.3438275369       -2.6190572677       -0.0515379057
 C          0.9902389876       -3.2194810918       -1.1239973676
 C          2.3576726456       -3.0765683308       -1.2881035149
 C          3.1019184804       -2.3141487582       -0.4070660394
 C          2.4629719671       -1.7094119350        0.6694091980
 N          3.1647043351       -0.8910467106        1.5817432500
 S          2.7608226887        0.7369316856        1.5907130104
 O          3.6243312550        1.3332712163        2.5883811934
 O          1.3440080486        0.8928825893        1.7969477471
 C          3.2457359022        1.3194140599       -0.0252417910
 C          4.4533210576        1.9795473385       -0.1535957441
 C          4.8724818364        2.3759790559       -1.4129088918
 C          4.0850397298        2.0969729526       -2.5200661060
 C          2.8791046432        1.4294608045       -2.3740297274
 C          2.4500561115        1.0320434998       -1.1161802875
 H          1.5130833982        0.5125465975       -0.9830202343
 H          2.2616726522        1.2071497564       -3.2296757125
 H          4.4117214123        2.4011638678       -3.5020235881
 H          5.8096747178        2.8965619049       -1.5269542050
 H          5.0295630668        2.1751077238        0.7364083995
 H          4.1700987767       -0.9753237007        1.5094959225
 H          4.1635478022       -2.1793309078       -0.5507943219
 H          2.8460979257       -3.5481648838       -2.1270950756
 H          0.4220435687       -3.7821161801       -1.8462334024
 C         -1.1426660717       -2.7023504392        0.1989353431
 H         -1.2906614720       -3.2202135836        1.1617383367
 C         -1.8925225413       -3.5098179500       -0.8507553182
 C         -3.3197995870       -3.2002373564       -1.1885033285
 C         -2.2392755347       -2.9401374041       -2.1922721725
 H         -2.1785461660       -3.5864070661       -3.0556293756
 H         -1.9513343874       -1.9195172566       -2.3865584910
 H         -3.7786710294       -2.3552353298       -0.6952492116
 H         -3.9959827093       -4.0250507826       -1.3570019764
 H         -1.6290513130       -4.5624465478       -0.8186186750
 O         -0.4958506964       -0.3180805607       -1.3628732550
