  62
        -98.94103342
 C          2.3907162003        0.2061453699        0.1724081502
 C          1.5366244205       -0.2495372600       -0.8584513699
 C          1.4443955705       -1.7074934200       -1.0192361000
 C          2.1506882003       -2.5076661801       -0.2009700299
 C          2.1635820003       -4.0077048101       -0.2620467899
 C          1.1076366901       -4.6298738600        0.6601323099
 C         -0.2899322098       -4.0329477300        0.4945565597
 H         -0.9610009000       -4.5903261200        1.1528443896
 H         -0.2884697699       -2.9997331600        0.8503501398
 C         -0.8329751296       -4.0720537599       -0.9407077404
 H         -0.2805589296       -4.8061109400       -1.5292339303
 H         -1.8749576196       -4.3976498399       -0.9079726405
 C         -0.8122205495       -2.7182654499       -1.6527478403
 H         -1.2403372695       -1.9640097299       -0.9879965004
 H         -1.4539692493       -2.7849919799       -2.5356042404
 C          0.5643405406       -2.2280274300       -2.1209822601
 H          1.0695074907       -3.0232503300       -2.6739839800
 H          0.4056238407       -1.3846904099       -2.7992881901
 H          1.0721017201       -5.7038718100        0.4648386399
 H          1.4203009300       -4.4829267701        1.6966844500
 H          1.9911424204       -4.3217622300       -1.2899506099
 H          3.1513428702       -4.3511187101        0.0518411503
 O          2.9412280502       -2.0336832801        0.7970345503
 C          3.0667202202       -0.6729912901        1.0163499403
 O          3.8089403100       -0.3704836102        1.9754169904
 H          0.5647010901        0.9632443499        1.8371571600
 C          0.2934684902        1.8142946200        1.2282877499
 C          1.2434111204        2.3789061000        0.3779902601
 C          0.8516619605        3.4766476900       -0.3776751099
 C         -0.4424932795        3.9672012900       -0.2995629201
 C         -1.3899433296        3.3644763600        0.5040758897
 C         -1.0127356398        2.2656056200        1.2670463798
 N         -1.9390425299        1.5669926700        2.0729327996
 S         -2.2934717499        0.0026433800        1.5788763595
 O         -3.2608008700       -0.4880165599        2.5377238993
 O         -1.0777305799       -0.7571080700        1.4528682297
 C         -3.0932903496        0.2083835101       -0.0035584106
 C         -2.3371959695        0.5250979701       -1.1149492705
 C         -2.9882566893        0.7375523701       -2.3213205706
 C         -4.3682563992        0.6347226502       -2.3966927508
 C         -5.1119737294        0.3188619902       -1.2693858809
 C         -4.4705784196        0.1080662001       -0.0600304108
 H         -5.0042793198       -0.1422022599        0.8426960991
 H         -6.1854169094        0.2375016002       -1.3281877211
 H         -4.8658324291        0.8010046302       -3.3391594609
 H         -2.4022983491        0.9826816601       -3.1924967905
 H         -1.2622583895        0.5950255501       -1.0442373203
 H         -2.8067499499        2.0662378900        2.2171943795
 H         -2.4059762796        3.7280508101        0.5376855896
 H         -0.7188964393        4.8217637200       -0.8982716402
 H          1.5322391906        3.9586920400       -1.0548623298
 C          2.5919081804        1.6994805599        0.4159681003
 H          2.9497195102        1.7760192299        1.4574679904
 C          3.7564994005        2.1516249599       -0.4540092095
 C          3.6490316307        2.6081602199       -1.8747275495
 C          4.0985423306        3.5671067899       -0.8103994194
 H          5.1431379206        3.8418503299       -0.7926496493
 H          3.4426670406        4.3597933699       -0.4914719295
 H          4.3857946808        2.2437478099       -2.5761437694
 H          2.6632389008        2.6977413800       -2.3008859097
 H          4.6099043004        1.5133771299       -0.2314225494
 O          0.8924292806        0.5185566200       -1.6191672900
