  62
        -98.93953676
 C         -2.6341031815       -1.2636020775        0.0172857147
 C         -2.7266381751       -0.2210560581       -0.9357889908
 C         -4.0624755242        0.3676781680       -1.1094483882
 C         -5.0943449035       -0.1127999035       -0.3919216729
 C         -6.4922439096        0.4320039955       -0.4293730176
 C         -6.6934614544        1.5181853593        0.6366678446
 C         -5.6006760295        2.5873215345        0.6443413116
 H         -5.8635337661        3.3152657837        1.4150573558
 H         -4.6548086666        2.1302585355        0.9447615852
 C         -5.4090405510        3.3094246117       -0.6966308417
 H         -5.3213564818        4.3812937206       -0.5070101311
 H         -6.2880919789        3.1624751298       -1.3252140993
 C         -4.1571168203        2.8903656889       -1.4697832633
 H         -3.2842295747        2.9462140206       -0.8138788077
 H         -4.0027529888        3.6074522997       -2.2804952507
 C         -4.1979535382        1.4915078739       -2.0977589947
 H         -5.1091413812        1.3793268245       -2.6887260715
 H         -3.3383364078        1.4043918292       -2.7686471329
 H         -7.6640558765        1.9891643892        0.4708688965
 H         -6.7109987998        1.0402306497        1.6189194704
 H         -6.6918817990        0.8381787723       -1.4189394282
 H         -7.1862468100       -0.3875226952       -0.2354452578
 O         -4.9692184450       -1.1310110971        0.4978639336
 C         -3.7381849844       -1.7193982746        0.7367025526
 O         -3.7562311828       -2.6225823000        1.5978965325
 O         -1.7482101821        0.1962506397       -1.6083360961
 C         -1.2911963276       -1.9157196787        0.2943464752
 C         -0.3072056534       -0.8667378141        0.7541610148
 C         -0.6628204964       -0.0453819312        1.8212323981
 C          0.1979050261        0.9331527842        2.2784240485
 C          1.4330864966        1.1175224664        1.6816895701
 C          1.8026185953        0.2983827579        0.6245916174
 C          0.9388367081       -0.6945311711        0.1745240528
 H          1.2406233079       -1.3233084908       -0.6485616158
 N          3.0471732829        0.4886445588       -0.0023304366
 S          4.3927561556        0.7573910072        0.9814803296
 O          4.4353564952       -0.2248900663        2.0423758129
 O          4.3903205601        2.1360182040        1.4018439541
 C          5.7160655219        0.4814482111       -0.1793068845
 C          6.3114873587       -0.7640678289       -0.2439921987
 C          7.3220265156       -0.9762579495       -1.1685745286
 C          7.7156952257        0.0539705904       -2.0093422718
 C          7.1086382881        1.2987357490       -1.9321235587
 C          6.0979489820        1.5179320771       -1.0097476512
 H          5.6033545156        2.4697919090       -0.9082572464
 H          7.4195300022        2.0976327955       -2.5858577838
 H          8.5026674816       -0.1137713698       -2.7275856340
 H          7.7979447633       -1.9417522867       -1.2293983131
 H          5.9802933634       -1.5327776757        0.4357758913
 H          3.2387717888       -0.2255022298       -0.6918222470
 H          2.1135395659        1.8791395972        2.0265765637
 H         -0.0941249067        1.5628517011        3.1059715268
 H         -1.6297184853       -0.1856047437        2.2867605057
 H         -1.4576404004       -2.6123700759        1.1289727131
 C         -0.8333811875       -2.7049341618       -0.9140658103
 C          0.0851696099       -3.8767727443       -0.7443347403
 C         -1.3527280811       -4.0970788191       -1.1044885308
 H         -1.5906104541       -4.4264765693       -2.1047542058
 H         -2.0195809202       -4.4843070384       -0.3477542751
 H          0.8335636204       -4.0610746175       -1.5004166025
 H          0.4000729622       -4.1234494168        0.2585138485
 H         -0.7232955219       -2.0874284363       -1.7980818362
