  62
        -98.94263386
 C         -2.6626202894       -1.2028491210        0.2456258583
 C         -2.7228545762       -0.3395213592       -0.8750389947
 C         -3.8261427373        0.6338465749       -0.8755113897
 C         -4.7009859893        0.6463945420        0.1460132783
 C         -5.8386018279        1.6139980807        0.2926427515
 C         -5.4130604057        2.8574748920        1.0858870046
 C         -4.1097776949        3.4876214257        0.5946714010
 H         -3.9259185478        4.3728652260        1.2072493759
 H         -3.2862625602        2.7935316716        0.7783980006
 C         -4.1159355985        3.8845014167       -0.8881897546
 H         -5.1424022461        3.9422976450       -1.2521505048
 H         -3.6810712772        4.8814456580       -0.9854714830
 C         -3.3079660664        2.9560964108       -1.7968898195
 H         -2.3052954935        2.8197216454       -1.3835606431
 H         -3.1978663859        3.4437851234       -2.7692131014
 C         -3.9180102836        1.5710855382       -2.0469131884
 H         -4.9540459317        1.6784409255       -2.3744316261
 H         -3.3499050346        1.0987260278       -2.8536801963
 H         -6.2180243339        3.5927001489        1.0323099717
 H         -5.2819502647        2.5723308502        2.1322404510
 H         -6.1921077427        1.9033082659       -0.6951105630
 H         -6.6483007511        1.1132044537        0.8260489040
 O         -4.6179474167       -0.2057007844        1.1992064354
 C         -3.5965751941       -1.1343933470        1.2835438991
 O         -3.6295862942       -1.8391102710        2.3119951884
 H          0.3458282151       -1.3380106199       -1.3445139130
 C          0.6075510537       -1.1601787134       -0.3132373249
 C         -0.2584803316       -1.5589139746        0.6934422806
 C          0.0880016540       -1.2904229549        2.0144340176
 C          1.2724571935       -0.6443011160        2.3163902991
 C          2.1321570174       -0.2441324632        1.3081578939
 C          1.7913137103       -0.4986482207       -0.0131799871
 N          2.6464619906       -0.0696858289       -1.0433557660
 S          4.2620057348       -0.5131201125       -0.9669343205
 O          4.7350470709       -0.4723907397       -2.3335765427
 O          4.4347785751       -1.7646160080       -0.2655490102
 C          5.0287051803        0.8075636672       -0.0509026683
 C          5.8088313601        0.5165652174        1.0509634850
 C          6.4111027762        1.5579628358        1.7398840069
 C          6.2242187716        2.8647190023        1.3161634728
 C          5.4388566357        3.1400681298        0.2064499878
 C          4.8351389780        2.1036073748       -0.4874013996
 H          4.2192866107        2.2753361488       -1.3545243639
 H          5.2952560372        4.1577147913       -0.1194494679
 H          6.6931331534        3.6736432801        1.8538470718
 H          7.0217650427        1.3459858199        2.6028025824
 H          5.9203163346       -0.5142616961        1.3471925173
 H          2.2707282998       -0.2236542489       -1.9680085558
 H          3.0566060336        0.2614401516        1.5356996807
 H          1.5292804694       -0.4482334976        3.3463317223
 H         -0.5890384485       -1.5910892054        2.8020475293
 C         -1.5680824467       -2.2487064430        0.3950913124
 H         -1.8420736279       -2.8396862934        1.2791388321
 C         -1.4974630110       -3.1773469484       -0.8002598253
 C         -0.7173549569       -4.4513699997       -0.6861970219
 C         -2.2141154738       -4.4914570608       -0.7500126669
 H         -2.6826593995       -4.8571745278       -1.6514451925
 H         -2.7577632251       -4.7310684640        0.1522455569
 H         -0.1547893047       -4.7919501106       -1.5422408867
 H         -0.2429696245       -4.6614355986        0.2607650137
 H         -1.4854272136       -2.6607994543       -1.7513817430
 O         -1.9116457705       -0.3707437520       -1.8379803051
