  62
        -98.93968622
 C         -2.0771318914       -1.3785987989        0.6390772191
 C         -1.9707157610       -0.1047301789        1.2557055891
 C         -3.0270488906        0.8643266215        0.9437567689
 C         -4.0278794905        0.4980571519        0.1228315987
 C         -5.1359029201        1.4010691523       -0.3345109215
 C         -4.7674797996        2.1060031722       -1.6478334514
 C         -3.3825710893        2.7537135416       -1.6349710512
 H         -2.6237903296        1.9711573113       -1.5595841810
 H         -3.2451162789        3.2427738716       -2.6018642411
 C         -3.1702805591        3.7759039416       -0.5095226011
 H         -2.6841623387        4.6598328814       -0.9275901410
 H         -4.1350365191        4.0952151819       -0.1135373713
 C         -2.2885993795        3.2812862812        0.6388173890
 H         -2.0263486993        4.1419291511        1.2596892691
 H         -1.3612109696        2.8653468108        0.2375026892
 C         -2.9204623101        2.2303436715        1.5599097289
 H         -2.2683566603        2.1158656712        2.4305392690
 H         -3.8970227600        2.5769492919        1.9038638087
 H         -5.5246037192        2.8641311625       -1.8567859516
 H         -4.7932072597        1.3695762822       -2.4544536414
 H         -5.3418640099        2.1367688424        0.4404844285
 H         -6.0300394503        0.7964005127       -0.4954183417
 O         -4.1109336509       -0.7359340481       -0.4320598513
 C         -3.1264482114       -1.6977905985       -0.2232112011
 O         -3.3241776117       -2.7543856984       -0.8491377011
 O         -1.0285298710        0.2016198307        2.0347659993
 C         -0.9422721518       -2.3457227493        0.9268870193
 C          0.2089385385       -2.0287733898        0.0062408195
 C          0.0211557788       -1.9472185497       -1.3702035705
 C          1.0741145991       -1.6130750201       -2.2018493303
 C          2.3287591691       -1.3457629606       -1.6809472501
 C          2.5234355888       -1.4120834507       -0.3078065200
 C          1.4656122185       -1.7578262503        0.5248275398
 H          1.6180256483       -1.7964771203        1.5946418198
 N          3.7930076788       -1.1426113512        0.2341613002
 S          4.5810889294        0.2715938885       -0.1930051996
 O          4.9558218697        0.2055554283       -1.5825410596
 O          5.6621153193        0.3958875780        0.7570765906
 C          3.3901351299        1.5732877889        0.0616776301
 C          2.5989346903        1.9928512193       -0.9883965000
 C          1.6530302806        2.9792673896       -0.7590953002
 C          1.5152116606        3.5250035297        0.5076107898
 C          2.3148133402        3.0893500994        1.5527526899
 C          3.2592473399        2.1010873290        1.3308967601
 H          3.9078762596        1.7433409487        2.1144534502
 H          2.2015165902        3.5134484994        2.5374071599
 H          0.7807762009        4.2954039600        0.6818991896
 H          1.0267272809        3.3187030099       -1.5688658303
 H          2.7416003503        1.5528479692       -1.9616501800
 H          3.8381441185       -1.2706702712        1.2350256502
 H          3.1567282493       -1.0798814710       -2.3178111999
 H          0.9174888393       -1.5582635201       -3.2687317403
 H         -0.9600371712       -2.1458397793       -1.7767407307
 H         -0.6171119619       -2.1026808095        1.9513363594
 C         -1.3423500724       -3.8119239092        0.9180231292
 C         -0.9034139126       -4.7850656993       -0.1303468907
 C         -0.3205825229       -4.8603743696        1.2470456294
 H         -0.6055471733       -5.6797148495        1.8893406994
 H          0.7016688872       -4.5350416600        1.3717883996
 H         -1.6129228028       -5.5371516391       -0.4395335808
 H         -0.2731128223       -4.4294562496       -0.9301422906
 H         -2.3385476025       -3.9622515488        1.3199483191
