  62
        -98.94745648
 C         -0.7434696116       -1.2892072553        0.0846981321
 C         -1.4283403048       -0.5159288441        1.0510148516
 C         -2.3832383803        0.4678327057        0.5241057488
 C         -2.4927888277        0.6292992835       -0.8070421899
 C         -3.4848799462        1.5305127041       -1.4818361259
 C         -4.7833589249        0.7747352810       -1.7996468318
 C         -5.3495606527       -0.0061678710       -0.6133538760
 H         -6.2820919206       -0.4688509037       -0.9438682458
 H         -4.6626039458       -0.8164955891       -0.3585484392
 C         -5.6162119643        0.8424964389        0.6378932008
 H         -5.6577090900        1.8982377434        0.3681475706
 H         -6.5945929810        0.5729764480        1.0413490950
 C         -4.6012638754        0.6468829713        1.7661535161
 H         -4.4905799648       -0.4196361121        1.9783148140
 H         -5.0003246961        1.1190481625        2.6679711765
 C         -3.2069502565        1.2373580410        1.5175254125
 H         -3.3022811440        2.2816914362        1.2161947015
 H         -2.6546130903        1.1965846623        2.4608882256
 H         -5.5253525677        1.4943157949       -2.1503695509
 H         -4.5849154139        0.0688858045       -2.6093680991
 H         -3.7003287643        2.3784032969       -0.8357090666
 H         -3.0476481309        1.8889375881       -2.4145328076
 O         -1.7468951117       -0.0663980370       -1.7020765641
 C         -0.8817096808       -1.0661776740       -1.2854025105
 O         -0.3044781030       -1.6658454334       -2.2114353950
 O         -1.2598137415       -0.6516995245        2.2938179407
 C          0.1886978370       -2.3941638993        0.5457570801
 C          1.5659694654       -2.2068054767       -0.0388097378
 C          2.3113353723       -3.2407879083       -0.5900836363
 C          3.5670169444       -2.9928976112       -1.1168173311
 C          4.1058542670       -1.7202031849       -1.0989447926
 C          3.3708920083       -0.6792739685       -0.5413711018
 C          2.1166203123       -0.9318205425       -0.0119147511
 H          1.5499985585       -0.1239449447        0.4286828922
 N          3.8676042151        0.6300958601       -0.5423534168
 S          3.4222846813        1.7298418319        0.6254864922
 O          4.3777613685        2.8084551544        0.4816042542
 O          3.3567914759        1.1258344549        1.9364738254
 C          1.8186784365        2.3242556839        0.1324061300
 C          1.5315961105        2.4759148974       -1.2092855490
 C          0.3060976114        3.0097422508       -1.5734232882
 C         -0.5998236350        3.3934304592       -0.5971052825
 C         -0.2978967064        3.2315898757        0.7455776718
 C          0.9214090715        2.6892316503        1.1161609293
 H          1.1895592189        2.5322746410        2.1491455313
 H         -1.0036712022        3.5232367995        1.5064123284
 H         -1.5457050897        3.8231600405       -0.8852478749
 H          0.0630535803        3.1263657643       -2.6174072496
 H          2.2578344659        2.1697430569       -1.9440207921
 H          4.8179331415        0.7457170251       -0.8598034105
 H          5.0820671347       -1.5273875361       -1.5168055450
 H          4.1343185113       -3.8034103788       -1.5487002490
 H          1.9078038661       -4.2396105572       -0.6153718155
 H          0.2632885044       -2.2815343242        1.6383024840
 C         -0.4204286970       -3.7467254644        0.2357211584
 C         -0.1327249265       -4.9285674756        1.1113738214
 C         -1.4853190686       -4.2846634352        1.1421087366
 H         -2.3196250705       -4.8114777746        0.7036502614
 H         -1.7496233697       -3.6873728317        2.0027306040
 H         -0.0407923615       -5.9014176566        0.6523402147
 H          0.5195276866       -4.7761059712        1.9580646785
 H         -0.5389899515       -3.9128811846       -0.8295145148
