  62
        -98.93831718
 C         -2.1885374262       -0.8987771424       -0.0847880676
 C         -2.9413956283       -0.2599350951        0.9253746069
 C         -3.7421727484        0.9074168558        0.5157374504
 C         -3.7060307498        1.3141699851       -0.7673609832
 C         -4.3717345514        2.4844565050       -1.4614918861
 C         -5.5044888354        3.2533258737       -0.7864836833
 C         -6.7984367234        2.4594222307       -0.6092199890
 H         -7.4951615074        3.0668486944       -0.0275468839
 H         -7.2423631778        2.2954794411       -1.5942933955
 C         -6.6492473657        1.0955750887        0.0602683350
 H         -7.6410324688        0.6383404832        0.1123788566
 H         -6.0290105682        0.4470148888       -0.5617387236
 C         -6.0759967120        1.1212447490        1.4757111450
 H         -6.1699772986        0.1126257609        1.8872869575
 H         -6.6676380383        1.7930483346        2.1006426744
 C         -4.5961954158        1.5279769766        1.5838344717
 H         -4.2124088579        1.1548544696        2.5381745407
 H         -4.4825091242        2.6095217842        1.5887130046
 H         -5.7277892555        4.1074053527       -1.4316429025
 H         -5.1712109868        3.6578085924        0.1647719707
 H         -3.5649832274        3.1889186527       -1.6925773359
 H         -4.7252293127        2.0973853389       -2.4223791558
 O         -2.9384151035        0.6803222948       -1.7023365368
 C         -2.1727803129       -0.4334868418       -1.3984078233
 O         -1.5393542665       -0.9003199414       -2.3624944641
 O         -2.9364436109       -0.6391280857        2.1289923585
 C         -1.3519869600       -2.1133932768        0.2695948561
 C          0.1048256005       -1.8596454784       -0.0330327572
 C          0.9273644276       -2.7900949777       -0.6540040970
 C          2.2600530666       -2.4998909304       -0.8911849251
 C          2.8011893036       -1.2844981784       -0.5163819505
 C          1.9919942976       -0.3515782707        0.1194620595
 C          0.6598356328       -0.6482654278        0.3619139510
 H          0.0312872935        0.0800239010        0.8609101217
 N          2.5282105386        0.8925390946        0.4952287987
 S          3.9600116953        0.9129015103        1.3716369469
 O          4.1047603302       -0.2780939363        2.1763494211
 O          3.9475875465        2.1719787247        2.0842893292
 C          5.2278022221        0.9657101197        0.1229329063
 C          5.1814758918        1.9844103334       -0.8084819456
 C          6.1646050329        2.0446625955       -1.7831042393
 C          7.1732114767        1.0927996163       -1.8076677841
 C          7.2077795609        0.0786003348       -0.8630063657
 C          6.2266743409        0.0119244287        0.1141151053
 H          6.2092474053       -0.7614028736        0.8654312339
 H          7.9928871586       -0.6599959393       -0.8837625474
 H          7.9366105507        1.1421259119       -2.5679795772
 H          6.1406497236        2.8317043714       -2.5195492732
 H          4.3829026904        2.7053678584       -0.7528037779
 H          1.8512782755        1.5189027928        0.9060270614
 H          3.8358907633       -1.0523651451       -0.7080129468
 H          2.8853668911       -3.2303684851       -1.3812486346
 H          0.5246197601       -3.7424181155       -0.9570425184
 H         -1.4553104865       -2.2326376119        1.3591054957
 C         -1.9060223932       -3.3491285914       -0.4086704375
 C         -1.7611533623       -4.6954763275        0.2335946470
 C         -3.1009066825       -4.0261239542        0.1906731486
 H         -3.8566572173       -4.4210351506       -0.4715448248
 H         -3.4971129398       -3.6114941243        1.1063243427
 H         -1.5993982167       -5.5546259612       -0.3997541625
 H         -1.2499096764       -4.7440584908        1.1832557036
 H         -1.8562912213       -3.2861002548       -1.4899703294
