  62
        -98.94340102
 C         -1.1159553510       -1.2922675037       -0.1320588658
 C         -1.9133144935       -0.8622232949        0.9610629353
 C         -2.8101768964        0.2724013336        0.7114289473
 C         -2.8001389083        0.8599475369       -0.4984817135
 C         -3.7083223903        1.9789024813       -0.9175396563
 C         -4.9948779203        1.4365515457       -1.5560764737
 C         -5.6817475937        0.3475168318       -0.7317208696
 H         -6.5944082795        0.0657619328       -1.2614204805
 H         -5.0412028841       -0.5369988916       -0.7041955515
 C         -6.0318272302        0.7628643566        0.7042011604
 H         -6.0198372413        1.8500398258        0.7893162799
 H         -7.0490156474        0.4328230927        0.9256037623
 C         -5.1248465300        0.1593948976        1.7784973693
 H         -5.0641839450       -0.9230723157        1.6402945469
 H         -5.5872109043        0.3384846942        2.7528713423
 C         -3.6975481299        0.7184056664        1.8391257101
 H         -3.7341206951        1.8081369912        1.8966457628
 H         -3.2330701281        0.3402290993        2.7543464764
 H         -5.6838600721        2.2697073545       -1.7063456016
 H         -4.7476265663        1.0197160766       -2.5351409614
 H         -3.9560593516        2.5880492066       -0.0503566701
 H         -3.1832042469        2.5944343504       -1.6493804318
 O         -1.9830693117        0.4607726352       -1.5026335683
 C         -1.1308666023       -0.6252453817       -1.3575752167
 O         -0.4613001652       -0.8683368074       -2.3798507683
 H          1.4402081127       -0.9134592139       -1.2624944128
 C          1.8817523907       -1.2582640830       -0.3390024908
 C          1.1553875108       -2.1085356687        0.4845978507
 C          1.7363649332       -2.5371978646        1.6717022422
 C          3.0122115010       -2.1274511563        2.0227545239
 C          3.7327338251       -1.2805005942        1.1991393201
 C          3.1566818069       -0.8445476680        0.0132852108
 N          3.8671634041        0.0587012107       -0.8150556249
 S          3.9421274231        1.6172551990       -0.2050583046
 O          4.4974001111        2.4336749620       -1.2594024830
 O          4.6757490219        1.5855348405        1.0340546920
 C          2.2479052433        2.0857096341        0.1037837596
 C          1.5813954164        2.8426243597       -0.8382790707
 C          0.2575859538        3.1817579842       -0.6113731938
 C         -0.3782845994        2.7440697057        0.5395779506
 C          0.2972057939        1.9642646142        1.4652316153
 C          1.6254466630        1.6342719878        1.2510206049
 H          2.1842168168        1.0443633695        1.9593246141
 H         -0.2088603045        1.6057433685        2.3477361913
 H         -1.4078391140        3.0093056986        0.7181829823
 H         -0.2745441630        3.7815765532       -1.3322102540
 H          2.1138438072        3.1629906190       -1.7196378548
 H          3.4869723734        0.1005844754       -1.7516368827
 H          4.7167715697       -0.9311656190        1.4656661273
 H          3.4489534010       -2.4680027855        2.9491733104
 H          1.1749372918       -3.1831586635        2.3306887153
 C         -0.2442432536       -2.5147669603        0.1053405121
 H         -0.6931552831       -3.0066641766        0.9823971085
 C         -0.2919536529       -3.5104751584       -1.0468049195
 C          0.8851527700       -3.8543848380       -1.9052144875
 C          0.3761641499       -4.8464829041       -0.9059019515
 H         -0.1398344440       -5.7259363537       -1.2599889878
 H          0.9723896727       -5.0094962349       -0.0205961472
 H          0.7021628203       -4.0296566262       -2.9545506752
 H          1.8285050681       -3.3709830412       -1.7061512473
 H         -1.2557403446       -3.5027435840       -1.5462058911
 O         -1.8836345718       -1.4156090914        2.0921000275
