  62
        -98.94098244
 C         -1.7146824802       -0.1560422411        0.9249815507
 C         -2.9200889700       -0.8803453815        0.7564804007
 C         -4.1290636503       -0.0732766518        0.5258451111
 C         -4.0361446108        1.2669806182        0.4717455714
 C         -5.1764881311        2.1981827579        0.1811371818
 C         -5.2978420914        2.4783676383       -1.3233794481
 C         -5.2783156911        1.2195145785       -2.1904888084
 H         -5.4010672013        1.5374791887       -3.2281422483
 H         -4.2956439209        0.7483482288       -2.1134188287
 C         -6.3618819307        0.1902451580       -1.8400125786
 H         -6.8192048507       -0.1660248719       -2.7655423486
 H         -7.1485534208        0.6652368976       -1.2525994483
 C         -5.8473289202       -1.0423060520       -1.0942902290
 H         -4.9972936901       -1.4682945716       -1.6332233792
 H         -6.6416926699       -1.7935637723       -1.0903440090
 C         -5.4277040101       -0.8126386022        0.3630418610
 H         -6.2300472702       -0.3040453626        0.9012722813
 H         -5.2740701197       -1.7937062623        0.8218771608
 H         -4.4627946917        3.1144976086       -1.6256149381
 H         -6.2245131916        3.0281444780       -1.4980677178
 H         -4.9933438214        3.1388717178        0.7031018520
 H         -6.1000933709        1.7606756375        0.5551592918
 O         -2.8627694610        1.9294510286        0.6318594314
 C         -1.6845389007        1.2415502889        0.8581897511
 O         -0.6846158509        1.9754435392        0.9898471012
 O         -3.0126198596       -2.1366210015        0.7908055304
 C         -0.3682274700       -0.8104889107        1.1866552304
 C          0.2858066000       -1.2988959501       -0.0838837598
 C         -0.3311049897       -2.2275843901       -0.9150649000
 C          0.3103983403       -2.6774193996       -2.0543603502
 C          1.5825605901       -2.2339094891       -2.3714060102
 C          2.2093445399       -1.3097082691       -1.5444281201
 C          1.5502870898       -0.8374108396       -0.4183748199
 H          2.0339610597       -0.1046471296        0.2092839803
 N          3.4956789897       -0.8351320786       -1.8356744501
 S          4.5867063697       -0.5587801085       -0.5966850602
 O          5.8833346797       -0.6344777679       -1.2352547004
 O          4.3706646602       -1.4571765689        0.5128573396
 C          4.2865639092        1.1239926812       -0.1022548597
 C          4.2931150387        2.1040063915       -1.0747151995
 C          4.0814524783        3.4203693513       -0.6986946891
 C          3.8704405484        3.7333005309        0.6356692410
 C          3.8711633589        2.7384920807        1.6006904408
 C          4.0820449093        1.4198896208        1.2304941704
 H          4.0849609997        0.6147424806        1.9489057002
 H          3.7039029989        2.9832191703        2.6374480808
 H          3.7024430781        4.7581902908        0.9266647013
 H          4.0790919280        4.1981925215       -1.4453028889
 H          4.4629306087        1.8227376718       -2.1006451396
 H          3.9356141497       -1.2586707582       -2.6395312403
 H          2.0877082001       -2.5994791987       -3.2526955504
 H         -0.1793516996       -3.3940802696       -2.6965080703
 H         -1.3140469196       -2.5914239205       -0.6585185600
 H          0.2703034198       -0.0159536706        1.5965120005
 C         -0.4247161394       -1.9418504810        2.1974261601
 C          0.8588153108       -2.4363507407        2.7916254998
 C         -0.1091510393       -1.6618700812        3.6340839301
 H         -0.6648284291       -2.1878302416        4.3959578501
 H          0.1459078903       -0.6466931212        3.9019967304
 H          0.9650010312       -3.4949816207        2.9740247595
 H          1.7760791006       -1.9568173603        2.4810971598
 H         -1.1947906192       -2.6710959512        1.9843381000
