  62
        -98.94088033
 C          1.2065343049        1.2837423245        0.1172519597
 C          1.9668145655        0.7892052292        1.2001384080
 C          2.6903093509       -0.4730421889        0.9696507867
 C          2.5627854047       -1.0893401240       -0.2185971571
 C          3.2646822149       -2.3384987666       -0.6744363102
 C          4.5545900241       -1.9860948080       -1.4351929202
 C          5.7938454111       -1.8133486804       -0.5579216190
 H          6.1048758679       -2.7893518154       -0.1792613439
 H          6.5964589350       -1.4407564409       -1.1985998561
 C          5.6304749620       -0.8591363962        0.6282397939
 H          5.0856001524        0.0324330918        0.3126100458
 H          6.6266065368       -0.5356515242        0.9367729062
 C          4.9254866969       -1.5048738917        1.8304055715
 H          4.8921172908       -2.5845946539        1.6851018640
 H          5.5184569960       -1.3331372592        2.7312173013
 C          3.5116373555       -0.9791538228        2.1241712277
 H          2.9431685227       -1.7575480095        2.6445073274
 H          3.5761773894       -0.1295934280        2.8114703964
 H          4.3715146356       -1.0672908002       -1.9979000760
 H          4.7625016138       -2.7767534647       -2.1588810499
 H          3.4720438001       -2.9939552278        0.1661555366
 H          2.5866522807       -2.8471859151       -1.3615232268
 O          1.7872533752       -0.5978849547       -1.2219319634
 C          1.0868294654        0.5876743142       -1.0863255180
 O          0.4124982646        0.9063060367       -2.0810484012
 H         -0.9289859214        0.7587550996        1.6227558678
 C         -1.5752366533        1.2874403199        0.9324347407
 C         -1.0377405184        2.3018814824        0.1482841033
 C         -1.8779335979        2.9743872117       -0.7278210306
 C         -3.2143848766        2.6238449192       -0.8263081031
 C         -3.7420539662        1.6065225116       -0.0529389455
 C         -2.9113198565        0.9364505118        0.8363220057
 N         -3.4362864304       -0.1114038434        1.6262355166
 S         -3.9698051783       -1.4564493250        0.7803379662
 O         -5.1536013098       -1.1007494792        0.0411320039
 O         -4.1230967525       -2.4981763667        1.7707590499
 C         -2.6432887906       -1.8615549321       -0.3395809737
 C         -1.6400205308       -2.7008600810        0.1016755060
 C         -0.5858554954       -2.9896762446       -0.7490512942
 C         -0.5483765743       -2.4273531983       -2.0156243690
 C         -1.5560736668       -1.5754381197       -2.4386478474
 C         -2.6157015076       -1.2871923679       -1.5943199105
 H         -3.4195493904       -0.6333238877       -1.8904935982
 H         -1.5099095694       -1.1237839159       -3.4159168108
 H          0.2750832784       -2.6428482986       -2.6779956976
 H          0.2035203651       -3.6467109233       -0.4193723546
 H         -1.7103472760       -3.1243346709        1.0912128454
 H         -2.7974968411       -0.4121431826        2.3495946658
 H         -4.7749981998        1.3085994247       -0.1321129892
 H         -3.8538101133        3.1498517378       -1.5188638874
 H         -1.4858778307        3.7661780899       -1.3442583434
 C          0.4379281044        2.5827052789        0.2843918492
 H          0.6315090939        2.9087854745        1.3169575110
 C          0.9522544055        3.6416098260       -0.6665686931
 C          0.7997189107        5.0933973139       -0.3271358882
 C          2.1513426832        4.4488895082       -0.2724213482
 H          2.8761166279        4.7011533496       -1.0319062607
 H          2.5866603005        4.2518428409        0.6965572428
 H          0.3179831840        5.3403198422        0.6068590532
 H          0.5982580038        5.7921398497       -1.1249105126
 H          0.8692168628        3.3456654182       -1.7060238678
 O          2.0391412497        1.3763319045        2.3153459299
