  62
        -98.93526962
 C          1.7463377668        0.5724621392       -0.0140980461
 C          2.9297707112        1.0131402063        0.6305642361
 C          4.2185940189        0.5505515610        0.0808220025
 C          4.2058153237       -0.2827433362       -0.9755084730
 C          5.3756714800       -0.9167640124       -1.6797898557
 C          5.9817649007       -2.0854179388       -0.8864047301
 C          6.1614807711       -1.8236987300        0.6066493292
 H          5.1936973583       -1.5744305119        1.0456879441
 H          6.4955685339       -2.7563994220        1.0689137996
 C          7.1753140039       -0.7380148433        0.9599928670
 H          7.2689798993       -0.7247259676        2.0489425627
 H          8.1494317099       -1.0097450526        0.5471308070
 C          6.8288846291        0.6787362933        0.4967845940
 H          7.0326506201        0.8062010181       -0.5630722594
 H          7.4966537133        1.3655170612        1.0252015784
 C          5.4054395839        1.1238438089        0.8170757071
 H          5.3414759484        2.2101349653        0.6791324285
 H          5.2090871649        0.9582885965        1.8825069848
 H          6.9441515845       -2.3425996819       -1.3321955145
 H          5.3185171901       -2.9471693503       -0.9953448560
 H          4.9984139937       -1.3012395314       -2.6301125167
 H          6.1293773248       -0.1671004996       -1.9019690475
 O          3.0440979872       -0.7104301052       -1.5433922541
 C          1.7955419840       -0.3087912032       -1.0950896628
 O          0.8528263118       -0.8009802645       -1.7423830029
 O          2.9172155474        1.7681447109        1.6394629527
 C          0.4259519681        1.0506149878        0.5651786593
 C         -0.4956479315       -0.1139360692        0.8130405268
 C         -0.3697765950       -0.8641659728        1.9777228832
 C         -1.2074949918       -1.9367360027        2.2260664035
 C         -2.1847038476       -2.2891444407        1.3111607110
 C         -2.3046404097       -1.5564924714        0.1396410416
 C         -1.4773755471       -0.4688574460       -0.0991291664
 H         -1.5787990871        0.0886695390       -1.0172948805
 N         -3.3200406173       -1.9022426103       -0.7875304442
 S         -4.8409579297       -1.3720092293       -0.3281385415
 O         -5.2250606668       -2.0643458925        0.8751644046
 O         -5.6992116325       -1.5520343100       -1.4769561320
 C         -4.6132000736        0.3647838282        0.0103844877
 C         -4.1918216625        0.7509376263        1.2671247050
 C         -3.9093414232        2.0879856910        1.4962035080
 C         -4.0477958956        3.0094174036        0.4692528566
 C         -4.4737197437        2.6056490978       -0.7870568889
 C         -4.7529940754        1.2692559018       -1.0232092040
 H         -5.0862679197        0.9127979848       -1.9849205725
 H         -4.5819507667        3.3256489019       -1.5824675568
 H         -3.8213116700        4.0487665155        0.6494473624
 H         -3.5737594417        2.4042369199        2.4708987124
 H         -4.0960580689        0.0044416622        2.0386381329
 H         -3.1190071571       -1.5672880624       -1.7199554988
 H         -2.8588520421       -3.1111877313        1.4892774455
 H         -1.0993864171       -2.5036145333        3.1383512188
 H          0.3968689760       -0.5959093327        2.6914985729
 H          0.7028468477        1.4803572686        1.5410471100
 C         -0.2567050449        2.1624138166       -0.2189352310
 C          0.5462765212        3.2715422986       -0.8272593172
 C         -0.1714284234        2.2955226912       -1.7085249138
 H         -1.0504235352        2.6345414585       -2.2375035856
 H          0.4096346792        1.5676190483       -2.2526880199
 H          0.1699361960        4.2807376274       -0.7590365615
 H          1.6220842719        3.1990079238       -0.7589894421
 H         -1.2038970848        2.4408384558        0.2337901839
