  62
        -98.94144182
 C         -2.4598189059       -1.0276687112       -0.5250416242
 C         -3.4352722117       -0.4754835208        0.3478296656
 C         -3.9128579050        0.8722287558        0.0265812740
 C         -3.4341873333        1.5049295694       -1.0595121856
 C         -3.8329558065        2.8746022793       -1.5370099534
 C         -3.0794636430        4.0174749960       -0.8428518533
 C         -3.4915005891        4.2808694298        0.6060494333
 H         -3.0517911985        5.2375153644        0.8948534886
 H         -4.5751355628        4.3895832252        0.6609670454
 C         -3.0288934274        3.2072551793        1.6013288722
 H         -2.2318532234        2.6093803335        1.1509725628
 H         -2.5999220947        3.6889022194        2.4832144419
 C         -4.1372248700        2.2739868882        2.0900322454
 H         -3.6882883511        1.5316373013        2.7550501770
 H         -4.8679150497        2.8455089648        2.6666051956
 C         -4.8748371299        1.5253670291        0.9722035754
 H         -5.5336200667        2.2065466571        0.4341951141
 H         -5.4791569514        0.7376787885        1.4285301681
 H         -2.0078683088        3.8058754800       -0.8829497000
 H         -3.2610538839        4.9265252397       -1.4209482016
 H         -4.9065127963        3.0110719277       -1.4042725211
 H         -3.6055878196        2.9103731573       -2.6045703908
 O         -2.5153208094        0.9385309808       -1.8825458744
 C         -1.9815114172       -0.3164052263       -1.6253758325
 O         -1.1161068995       -0.6591198246       -2.4578150904
 O         -3.8920819586       -1.0905587478        1.3478911119
 C         -1.9387978585       -2.4104363555       -0.1658225253
 C         -0.6383095273       -2.2912601787        0.5930306578
 C         -0.5423664355       -2.6877785767        1.9214944078
 C          0.6419762768       -2.5311360525        2.6211446852
 C          1.7519675136       -1.9713296482        2.0139946247
 C          1.6619996466       -1.5658635899        0.6893396983
 C          0.4802115283       -1.7380184997       -0.0143298764
 H          0.4161355769       -1.4075509410       -1.0409322294
 N          2.7853991506       -0.9684218319        0.0628089295
 S          3.1331972051        0.5974037065        0.6038311102
 O          3.2284361706        0.5768166662        2.0407336588
 O          2.1905388004        1.5423852062        0.0390298693
 C          4.7467865958        0.8403321860       -0.1109178458
 C          5.8497960876        0.3536740370        0.5635130351
 C          7.1033632542        0.5025495712       -0.0076897629
 C          7.2318415291        1.1292538109       -1.2383194109
 C          6.1151571453        1.6127494679       -1.9031253016
 C          4.8583744326        1.4664419766       -1.3370246630
 H          3.9640924489        1.8346463038       -1.8145915810
 H          6.2170923428        2.1015002776       -2.8587680388
 H          8.2082781435        1.2437834484       -1.6818758573
 H          7.9743003837        0.1298086032        0.5067779685
 H          5.7016635779       -0.1195811217        1.5198375837
 H          2.6355272620       -0.9048358067       -0.9374597049
 H          2.6714159398       -1.8206788982        2.5545794402
 H          0.6995950890       -2.8431497744        3.6529609087
 H         -1.4117995110       -3.1014270812        2.4116703588
 H         -2.6878730592       -2.8287504682        0.5199783410
 C         -1.8022965613       -3.3419671116       -1.3532856788
 C         -1.7856658635       -4.8212007200       -1.1156167295
 C         -2.9736955782       -4.1795922630       -1.7658299009
 H         -3.1409526581       -4.3449716953       -2.8194794449
 H         -3.8825840170       -4.0854580475       -1.1895695291
 H         -1.1346157622       -5.4318085541       -1.7219165606
 H         -1.8896840607       -5.1646066123       -0.0975805582
 H         -1.1721261144       -2.9498472982       -2.1405525123
