  62
        -98.94965549
 C         -1.6871540005       -1.2227751817        0.3398956453
 C         -1.3282595996       -0.1574350540       -0.5184900628
 C         -1.8962247694        1.1519892658       -0.1858465350
 C         -2.6674586089        1.2857321288        0.9080132661
 C         -3.2893949419        2.5638837215        1.4017843907
 C         -4.6139014265        2.9249303334        0.7147806469
 C         -4.4880566031        3.4161792364       -0.7279099322
 H         -5.4556000015        3.8379388962       -1.0071944560
 H         -3.7556186759        4.2227909375       -0.7715328279
 C         -4.1149334705        2.3231348623       -1.7388859051
 H         -4.7591155454        2.4047858538       -2.6171441004
 H         -4.2977829967        1.3413134142       -1.2963464954
 C         -2.6684567030        2.3819430458       -2.2296777077
 H         -2.5077597918        3.3072360968       -2.7870935470
 H         -2.5035749758        1.5434692139       -2.9106436497
 C         -1.6203750060        2.2974186175       -1.1121077877
 H         -0.6408368266        2.1280701174       -1.5661972229
 H         -1.5829058468        3.2332466521       -0.5543483527
 H         -5.0806920242        3.7159648149        1.3062885567
 H         -5.2717590469        2.0533610414        0.7477199726
 H         -2.5777448731        3.3821924233        1.2854084835
 H         -3.4801262553        2.4232117183        2.4681831888
 O         -2.9639916962        0.2424686782        1.7289802575
 C         -2.4841499480       -1.0305831336        1.4661380388
 O         -2.8308073464       -1.8948030964        2.2993500256
 O         -0.5661070864       -0.2943108869       -1.5118200017
 C         -1.1333473644       -2.6120581062        0.0819523690
 C          0.3736641980       -2.5563127189        0.0055109157
 C          1.1187023886       -3.2891623587       -0.9103600635
 C          2.4981599284       -3.1775685864       -0.9432268801
 C          3.1602766806       -2.3195611135       -0.0841608867
 C          2.4242005949       -1.5910914108        0.8428319079
 C          1.0484525672       -1.7374327961        0.9019317471
 H          0.4930028701       -1.1656628700        1.6314809802
 N          3.0434030531       -0.6839913422        1.7292869529
 S          2.6379556463        0.9350081247        1.5607826916
 O          3.4586275012        1.6276092961        2.5319022834
 O          1.2140657548        1.1063989098        1.6902311858
 C          3.1927661680        1.3558984555       -0.0822999901
 C          4.4181652196        1.9796997391       -0.2232984400
 C          4.8942180334        2.2475388766       -1.4961832305
 C          4.1446671814        1.8782987436       -2.6032231188
 C          2.9198869004        1.2492597149       -2.4440023177
 C          2.4338220416        0.9812144619       -1.1728471237
 H          1.4801721776        0.4959195338       -1.0306893645
 H          2.3302876447        0.9582497980       -3.2986546661
 H          4.5154892378        2.0820411399       -3.5953983766
 H          5.8458177903        2.7387357417       -1.6206624267
 H          4.9633873416        2.2491920545        0.6669281102
 H          4.0511863943       -0.7662866001        1.7531100909
 H          4.2335152574       -2.2106456885       -0.1280666037
 H          3.0631124344       -3.7521538035       -1.6611427059
 H          0.6172925524       -3.9439550938       -1.6042508166
 H         -1.4141728614       -3.2213440127        0.9539990982
 C         -1.7727727416       -3.2056666137       -1.1574812806
 C         -2.0017275306       -4.6828627125       -1.2622547646
 C         -3.1620722380       -3.7572952810       -1.0571418874
 H         -3.8444374879       -3.5912377333       -1.8772171828
 H         -3.6338494030       -3.7307028064       -0.0852500703
 H         -1.8916587681       -5.1552365771       -2.2267807407
 H         -1.6939444007       -5.2976319795       -0.4299299316
 H         -1.5151550908       -2.6598808816       -2.0579924320
