  62
        -98.93917931
 C         -2.4202717676       -1.2217596930       -0.0641897917
 C         -3.5107695950       -0.9034122107        0.7812441130
 C         -4.4351904890        0.1382530528        0.3032166811
 C         -4.1925345915        0.7311388427       -0.8786236664
 C         -4.9672620573        1.8513753064       -1.5156490543
 C         -4.3495824563        3.2129390211       -1.1539555396
 C         -4.8596565370        3.8257061157        0.1499148527
 H         -4.2524889548        4.7114121650        0.3506997922
 H         -5.8899899039        4.1593845705        0.0098618437
 C         -4.8052534623        2.9051661185        1.3720142877
 H         -3.8570341696        2.3641961966        1.3824255196
 H         -4.8277837379        3.5333703848        2.2646247796
 C         -5.9762753197        1.9131630391        1.4333688754
 H         -6.7363363142        2.2156342373        0.7132520618
 H         -6.4439322397        1.9679008665        2.4185024462
 C         -5.6026058858        0.4411982737        1.2025930562
 H         -5.3408752095       -0.0215658700        2.1591609520
 H         -6.4800799882       -0.0946969789        0.8259244176
 H         -3.2646643588        3.0861353934       -1.1026322928
 H         -4.5565649697        3.9174607626       -1.9621964594
 H         -4.8883042119        1.7099154429       -2.5955574168
 H         -6.0143430969        1.8065639306       -1.2312761661
 O         -3.1259673040        0.4024631807       -1.6578576639
 C         -2.2154309939       -0.5697154967       -1.2797445233
 O         -1.3007230607       -0.7557976966       -2.1062076889
 O         -3.7027707644       -1.4655560342        1.8925738501
 C         -1.4359688638       -2.2806636455        0.4060948095
 C         -0.1254708689       -1.5985535865        0.7099444605
 C          0.0321116287       -0.9425458399        1.9280569154
 C          1.1922391254       -0.2466326885        2.2098163570
 C          2.2156258157       -0.1800981138        1.2797366349
 C          2.0604596737       -0.8155857428        0.0558589524
 C          0.9039077086       -1.5351883991       -0.2156508909
 H          0.7930607735       -2.0137001738       -1.1757166111
 N          3.0877481251       -0.7430191062       -0.9012047362
 S          3.7622916292        0.7607936990       -1.2211007260
 O          2.8256284268        1.8354376008       -0.9852463043
 O          4.3013450281        0.6574776787       -2.5599203570
 C          5.1142651268        0.8643001007       -0.0645522753
 C          5.2519670029        1.9824321220        0.7344460190
 C          6.3163685360        2.0469780719        1.6203828186
 C          7.2202484809        0.9981289428        1.6904968381
 C          7.0699158011       -0.1165238077        0.8788643424
 C          6.0088606122       -0.1867293017       -0.0095859114
 H          5.8572312860       -1.0337616993       -0.6574295660
 H          7.7745593098       -0.9304066420        0.9365663323
 H          8.0462518907        1.0497015960        2.3821068638
 H          6.4342924390        2.9130955208        2.2516307534
 H          4.5200542390        2.7701655772        0.6505293542
 H          2.8607614514       -1.2168084618       -1.7641664707
 H          3.1176996045        0.3720650791        1.4867742212
 H          1.3019576674        0.2531888412        3.1602431269
 H         -0.7761317123       -0.9751007733        2.6454025591
 H         -1.8498952070       -2.6620183548        1.3490838690
 C         -1.3213460228       -3.4284665061       -0.5744517876
 C         -0.6807335745       -4.7087188982       -0.1310025092
 C         -2.1592566823       -4.6530075122       -0.3674940086
 H         -2.5632184412       -5.1517959255       -1.2357599988
 H         -2.8162684126       -4.6692348005        0.4895854657
 H         -0.0673040134       -5.2499923875       -0.8349229236
 H         -0.3321601866       -4.7613480750        0.8891869720
 H         -1.1632827927       -3.1074816879       -1.5969928543
