  62
        -98.94131633
 C          1.2205199157        0.8836310820        0.4992328476
 C          2.0689342880        0.6207155074       -0.6012259620
 C          2.9679667150       -0.5392054318       -0.4679690758
 C          2.9058259576       -1.3015535091        0.6369549291
 C          3.6791416086       -2.5559882027        0.9599524933
 C          5.1734420129       -2.5808264228        0.6121365456
 C          5.8911717300       -1.2292468334        0.7406695997
 H          5.2484254522       -0.5131019141        1.2553145596
 H          6.7874090102       -1.3605759851        1.3496597797
 C          6.3206440182       -0.6507174575       -0.6095672028
 H          7.1155825379        0.0797809905       -0.4417255521
 H          6.7390113230       -1.4554369433       -1.2179689531
 C          5.2187859381        0.0530061665       -1.4007385322
 H          4.9469827173        0.9889474278       -0.9053373728
 H          5.6232952425        0.3147723564       -2.3813440543
 C          3.9276037097       -0.7572454019       -1.6022857601
 H          4.1415237879       -1.8129771553       -1.7516907636
 H          3.4252607650       -0.3757227281       -2.4956941681
 H          5.6393526331       -3.3067102201        1.2808531113
 H          5.3050905785       -2.9591549044       -0.4006064781
 H          3.5515227298       -2.6984712459        2.0360550925
 H          3.1787443294       -3.3944440623        0.4654954322
 O          2.0425078653       -1.0341282449        1.6577409162
 C          1.1769616905        0.0439395099        1.6099216674
 O          0.4266689427        0.1470087141        2.6032301777
 O          2.0716644243        1.3112691433       -1.6536496979
 C          0.2438995161        2.0432145364        0.4497702246
 C         -0.7691711203        1.8312396749       -0.6512541670
 C         -1.2969254943        2.8661476046       -1.4135197678
 C         -2.2471362482        2.6026651718       -2.3852810215
 C         -2.7064445043        1.3163838422       -2.6043705055
 C         -2.1867181893        0.2747955464       -1.8440678948
 C         -1.2264826924        0.5416912827       -0.8823808703
 H         -0.8104389998       -0.2789957276       -0.3194050280
 N         -2.6131659225       -1.0479713704       -2.0317335937
 S         -2.7028117058       -2.0977880367       -0.7346220537
 O         -1.3834032742       -2.4948603650       -0.3095081475
 O         -3.5590918233       -3.1650384770       -1.2078104521
 C         -3.5484273751       -1.1787542066        0.5393393519
 C         -2.8723889396       -0.6902960381        1.6380869538
 C         -3.5701809508        0.0612689754        2.5717498914
 C         -4.9218302714        0.3090175719        2.3946949142
 C         -5.5896773952       -0.1969690658        1.2891946775
 C         -4.8979859926       -0.9444365801        0.3513959763
 H         -5.3824214448       -1.3664419091       -0.5141105244
 H         -6.6428228582       -0.0092238845        1.1560617200
 H         -5.4567042476        0.8962924889        3.1242872724
 H         -3.0406024638        0.4484033170        3.4278794621
 H         -1.8192376608       -0.8900623628        1.7626626224
 H         -3.3859831883       -1.1651737896       -2.6698696034
 H         -3.4490648658        1.1155276153       -3.3609528884
 H         -2.6421675963        3.4138651878       -2.9776010915
 H         -0.9588047247        3.8766168313       -1.2522904079
 H         -0.3004158990        2.0196729621        1.4064785021
 C          0.9814860402        3.3620965551        0.3415103050
 C          0.4210235640        4.5985093227        0.9759912270
 C          1.6247108804        3.9320488543        1.5690501477
 H          2.5859136555        4.4140325431        1.4718271761
 H          1.5045530081        3.3821630017        2.4916035863
 H          0.5585189114        5.5436342796        0.4726008251
 H         -0.5158313760        4.5100970890        1.5050071254
 H          1.5162891958        3.4620400179       -0.5956729408
