  62
        -98.94687403
 C         -1.1595223108       -1.1540833752       -0.1767280443
 C         -2.0302583173       -0.8510104581        0.9041233469
 C         -2.8528285904        0.3561185766        0.7648756163
 C         -2.7277485176        1.1081029025       -0.3434007789
 C         -3.5510018527        2.3244867809       -0.6525516542
 C         -4.8125603432        1.9523949469       -1.4444187429
 C         -5.6058770523        0.7962082471       -0.8354714490
 H         -5.0095719645       -0.1170654430       -0.8962497645
 H         -6.4894525820        0.6440109212       -1.4591918202
 C         -6.0402296073        1.0208693483        0.6197626460
 H         -7.0847230784        0.7194991398        0.7237196740
 H         -5.9850412108        2.0823845672        0.8639299325
 C         -5.2416435118        0.2207822779        1.6506869585
 H         -5.2199643831       -0.8323919953        1.3594050984
 H         -5.7646219267        0.2836642473        2.6087283326
 C         -3.7987919917        0.6861807877        1.8848292285
 H         -3.4191905886        0.1580179307        2.7641678559
 H         -3.7894350456        1.7573002952        2.0963781929
 H         -4.5154843517        1.6675556501       -2.4563310465
 H         -5.4498417329        2.8358791408       -1.5139850596
 H         -2.9483351050        3.0081047414       -1.2523284340
 H         -3.8299023204        2.8171534264        0.2770705810
 O         -1.8586568978        0.8108229211       -1.3387625280
 C         -1.0557112580       -0.3173805038       -1.2882054105
 O         -0.3173477353       -0.4382680158       -2.2872324740
 O         -2.1206445207       -1.5679366214        1.9355869408
 C         -0.3407746675       -2.4294114474       -0.0479427213
 C          1.0672185762       -2.1160681408        0.3951581862
 C          1.5305716607       -2.5049864229        1.6464318186
 C          2.8113248514       -2.1785069373        2.0595154042
 C          3.6518330428       -1.4472379154        1.2385489502
 C          3.1918369197       -1.0478337793       -0.0088780220
 C          1.9171926506       -1.3923812903       -0.4292124660
 H          1.5653595946       -1.0639097377       -1.3956829593
 N          4.0168435239       -0.2407564971       -0.8305320164
 S          4.1931639521        1.3246601965       -0.2568482463
 O          4.7452107804        2.0905506904       -1.3506746737
 O          4.9773920200        1.2822412050        0.9511299206
 C          2.5391273842        1.8825205678        0.1170268457
 C          1.9864767250        1.5720391019        1.3437075062
 C          0.6858368874        1.9667034570        1.6104344615
 C         -0.0322424482        2.6696434741        0.6559589576
 C          0.5342459405        2.9679062895       -0.5731652872
 C          1.8295625634        2.5633993705       -0.8510083612
 H          2.3052096677        2.7761148936       -1.7951930231
 H         -0.0311469144        3.5045997854       -1.3180871599
 H         -1.0417970112        2.9817857213        0.8720589932
 H          0.2338204657        1.7216539658        2.5583871957
 H          2.5792011081        1.0377328283        2.0680155424
 H          3.6765954734       -0.1942900634       -1.7821060154
 H          4.6410347228       -1.1561579426        1.5526432764
 H          3.1564474068       -2.4899090779        3.0336969734
 H          0.8720506606       -3.0522852143        2.3049549909
 H         -0.8245197081       -2.9996517465        0.7562425427
 C         -0.3461866230       -3.2758716612       -1.3058553608
 C         -0.0111568302       -4.7324890122       -1.2021309455
 C         -1.4180092560       -4.3054758199       -1.4930707725
 H         -1.8128262855       -4.4631655503       -2.4855649816
 H         -2.1545998830       -4.4095224040       -0.7096621718
 H          0.5635512253       -5.1862779669       -1.9948168711
 H          0.2056304062       -5.1271927667       -0.2210909650
 H         -0.0120333759       -2.7442678500       -2.1871568408
