  62
        -98.93692822
 C          2.3180184640        0.9494116692        0.3740065864
 C          2.5031947444       -0.0909572816       -0.5655356088
 C          3.4928471847       -1.1277441525       -0.2121446196
 C          4.1320494095       -1.0562633077        0.9674779117
 C          5.1940597382       -1.9792627018        1.4974573689
 C          6.5964481524       -1.4440806695        1.1619776276
 C          7.1389718133       -1.8702586199       -0.2016140501
 H          8.0684117276       -1.3208779403       -0.3680309122
 H          7.3878151474       -2.9331851762       -0.1725082806
 C          6.2014835902       -1.6201385057       -1.3857380685
 H          5.7421495499       -0.6345831884       -1.2900209037
 H          6.8061663138       -1.6072325122       -2.2947131302
 C          5.1118863743       -2.6931241082       -1.5294071225
 H          5.1094530706       -3.0704741650       -2.5542474605
 H          5.3592444928       -3.5401454043       -0.8898362969
 C          3.6817944868       -2.2199464912       -1.2301975290
 H          3.2316311323       -1.8256762489       -2.1467443139
 H          3.0754410179       -3.0822868127       -0.9328407302
 H          6.5610054092       -0.3531671533        1.2201563292
 H          7.2953412693       -1.7889921144        1.9266222579
 H          5.0783410205       -1.9931808191        2.5832097995
 H          5.0556810895       -2.9870023961        1.1174977558
 O          3.9133230024       -0.0468525704        1.8534135987
 C          3.0241674292        0.9721994102        1.5819983451
 O          2.9477801330        1.8354990944        2.4785588227
 O          1.8871593587       -0.1772467066       -1.6635288390
 C          1.3608095630        2.1136070407        0.1657873327
 C         -0.0666016192        1.7202018561        0.4655093751
 C         -0.7718789219        2.3350205172        1.4934103663
 C         -2.0835147702        1.9812590870        1.7566831153
 C         -2.7159476944        1.0059710497        1.0065466683
 C         -2.0199053652        0.3848458454       -0.0222027626
 C         -0.7075668454        0.7489625118       -0.2900479300
 H         -0.1680952245        0.2597342235       -1.0875715979
 N         -2.6369334091       -0.6296035127       -0.7725810051
 S         -4.1831512986       -0.3748735201       -1.3679917204
 O         -4.3092143510       -1.2724844754       -2.4953023210
 O         -4.4283856669        1.0243804464       -1.6313425475
 C         -5.2453379367       -0.9431177490       -0.0561543918
 C         -6.2390248048       -0.1175785527        0.4323536257
 C         -7.0611775640       -0.5852898794        1.4458289789
 C         -6.8770197163       -1.8639466257        1.9490195236
 C         -5.8764917503       -2.6819188966        1.4452295731
 C         -5.0520000718       -2.2207342005        0.4315089311
 H         -4.2653508061       -2.8253421839        0.0116293715
 H         -5.7360422658       -3.6756899388        1.8390996374
 H         -7.5169112620       -2.2256549688        2.7383310770
 H         -7.8400196880        0.0486285433        1.8382030163
 H         -6.3413605303        0.8712612561        0.0143592288
 H         -2.0349121579       -1.0294365700       -1.4780517408
 H         -3.7365300883        0.7253612813        1.2093384195
 H         -2.6191049830        2.4672647844        2.5578802468
 H         -0.2804445043        3.0867140335        2.0939547449
 H          1.6580911791        2.8705975588        0.9037864592
 C          1.4689609628        2.7302196178       -1.2161240427
 C          1.0165835542        4.1437084420       -1.4174428596
 C          2.4773195323        3.8104084613       -1.4599026796
 H          2.9871858575        3.8342323659       -2.4113299874
 H          3.0940705505        4.1149143689       -0.6265423103
 H          0.5184717804        4.3980695606       -2.3405352875
 H          0.6436136738        4.6771667577       -0.5562142253
 H          1.2925069328        2.0260914559       -2.0184881957
