  62
        -98.94964942
 C         -1.6874181469       -1.2342803215        0.3377446797
 C         -1.3298054981       -0.1621133306       -0.5128081986
 C         -1.9179512686        1.1394363151       -0.1842703948
 C         -2.7096030805        1.2597446199        0.8964883011
 C         -3.3533789084        2.5287880664        1.3857888833
 C         -4.6685728527        2.8810078250        0.6766788021
 C         -4.5210451534        3.3822925784       -0.7604924324
 H         -5.4870298310        3.7972511978       -1.0549583908
 H         -3.7950791778        4.1955112211       -0.7859038253
 C         -4.1196949054        2.2987684266       -1.7708989646
 H         -4.7487052533        2.3797384711       -2.6601395031
 H         -4.3012254750        1.3126938078       -1.3373931337
 C         -2.6652011699        2.3738146981       -2.2351216935
 H         -2.5030394004        3.3037347368       -2.7843832170
 H         -2.4800171401        1.5408200626       -2.9175881836
 C         -1.6370643144        2.2927612854       -1.0990577459
 H         -0.6474810701        2.1360132397       -1.5355742645
 H         -1.6188991890        3.2255125088       -0.5351673226
 H         -5.3183336584        2.0029162668        0.6924145366
 H         -5.1538742277        3.6638860275        1.2641256534
 H         -3.5622660942        2.3800138557        2.4476874977
 H         -2.6476961331        3.3546137491        1.2871968016
 O         -3.0092324858        0.2093793735        1.7073620311
 C         -2.5071577580       -1.0562586443        1.4498886895
 O         -2.8567596819       -1.9274022515        2.2745943299
 O         -0.5527669853       -0.2871540554       -1.4960279065
 C         -1.1094537973       -2.6149309478        0.0874715765
 C          0.3981318525       -2.5413382995        0.0392046563
 C          1.1675462846       -3.2826112081       -0.8495948033
 C          2.5463718571       -3.1601250234       -0.8573361166
 C          3.1842215398       -2.2820710573       -0.0001556646
 C          2.4237215839       -1.5437887399        0.8987346576
 C          1.0482565584       -1.7007444835        0.9336631454
 H          0.4745542826       -1.1206676551        1.6422524439
 N          3.0171986437       -0.6132826368        1.7789273547
 S          2.6095281458        0.9982518988        1.5505980424
 O          3.4100658698        1.7257689998        2.5130389543
 O          1.1830413152        1.1672233405        1.6497062324
 C          3.1940213853        1.3643140418       -0.0953722772
 C          4.4307549266        1.9660394272       -0.2338232250
 C          4.9326767631        2.1874607889       -1.5056505252
 C          4.1970294268        1.7945837208       -2.6138980791
 C          2.9605764276        1.1882364780       -2.4570760516
 C          2.4486802111        0.9664871615       -1.1870667880
 H          1.4858008129        0.4990715347       -1.0468353784
 H          2.3818721565        0.8792416268       -3.3128422183
 H          4.5879798351        1.9620129453       -3.6051598318
 H          5.8934190773        2.6610124059       -1.6283250356
 H          4.9643628824        2.2556651385        0.6571381794
 H          4.0245543768       -0.6899325197        1.8279716822
 H          4.2572112296       -2.1647908080       -0.0244713946
 H          3.1301275370       -3.7422438999       -1.5538083281
 H          0.6852905726       -3.9534250373       -1.5417477570
 H         -1.3987461048       -3.2302380302        0.9525658823
 C         -1.7166291401       -3.2145293471       -1.1654272625
 C         -1.9257779460       -4.6942028121       -1.2771467681
 C         -3.1010135855       -3.7828430341       -1.0945612235
 H         -3.7682599058       -3.6233824953       -1.9282856957
 H         -3.5929952886       -3.7638364774       -0.1325701105
 H         -1.7901307319       -5.1634791447       -2.2399410556
 H         -1.6281692221       -5.3067954094       -0.4395175913
 H         -1.4469677234       -2.6643917486       -2.0597428778
