  62
        -98.94044029
 C         -2.3793411806       -0.7345164297       -0.0823516313
 C         -3.5178250106       -0.9965311706        0.7165504383
 C         -4.8060143506       -0.5886300696        0.1459642689
 C         -4.8458761604       -0.0275416679       -1.0765696204
 C         -6.0857576904        0.4146109433       -1.8058002898
 C         -6.5726311301        1.8176926628       -1.4182261179
 C         -7.2119036501        1.9250788310       -0.0332278378
 H         -7.6988202700        2.9008167410        0.0200873936
 H         -7.9895853703        1.1673272610        0.0665051012
 C         -6.2203508302        1.8042862393        1.1323765221
 H         -5.2040550901        1.9609075296        0.7631704523
 H         -6.4195369700        2.5908098683        1.8637669031
 C         -6.2763258604        0.4697255383        1.8759336003
 H         -7.2483594904        0.3613283878        2.3620700301
 H         -5.5096131204        0.4783161671        2.6549814903
 C         -6.0347576106       -0.7580121705        0.9878635786
 H         -6.9048970306       -0.9451179095        0.3591895884
 H         -5.8764648207       -1.6239940714        1.6352160375
 H         -7.3135279801        2.1216289139       -2.1612236675
 H         -5.7303433900        2.5100287428       -1.4860247270
 H         -5.8349983104        0.4188316046       -2.8686385798
 H         -6.8850732005       -0.3081774268       -1.6399270708
 O         -3.7288252504        0.1895977629       -1.8215754601
 C         -2.4693994605       -0.1369028680       -1.3392906905
 O         -1.5346193704        0.1453784529       -2.1128149201
 O         -3.4591290307       -1.5427772521        1.8511621076
 C         -1.0106288706       -1.1218491706        0.4429384082
 C         -0.1006746904        0.0791582091        0.5210944798
 C         -0.5833963303        1.2642714284        1.0716508914
 C          0.2276388799        2.3769082382        1.1776588229
 C          1.5462918699        2.3274239385        0.7600171829
 C          2.0403376597        1.1489817892        0.2157221013
 C          1.2168356496        0.0374875495        0.0948318298
 H          1.6294628994       -0.8606707700       -0.3329897214
 N          3.3701009597        1.0627117296       -0.2272805588
 S          4.1897997195       -0.3955302809        0.0067161092
 O          3.9136326093       -1.2735451694       -1.1021901320
 O          3.9020619694       -0.9169654726        1.3236654585
 C          5.8822416196        0.1627516689       -0.0762260700
 C          6.4818607396        0.2989730505       -1.3139811798
 C          7.7880074997        0.7578285404       -1.3784263092
 C          8.4688459797        1.0717760987       -0.2115168487
 C          7.8546617097        0.9283080771        1.0236165411
 C          6.5484794296        0.4704944672        1.0952613204
 H          6.0345811296        0.3328655061        2.0330418502
 H          8.3877090397        1.1697130858        1.9290811914
 H          9.4856725198        1.4274267286       -0.2648469482
 H          8.2697398697        0.8673833216       -2.3366190790
 H          5.9167326496        0.0339041518       -2.1924100602
 H          3.9304163399        1.8573285291        0.0491509623
 H          2.1827214101        3.1947286683        0.8490872141
 H         -0.1657749299        3.2895470277        1.5999268242
 H         -1.6091682303        1.3002616882        1.4135101315
 H         -1.1814298007       -1.4827185820        1.4692899677
 C         -0.4356843308       -2.2576963396       -0.3772664333
 C          0.5234510590       -3.2287664206        0.2414599154
 C         -0.8721377011       -3.6618325399       -0.0901645552
 H         -1.0204385212       -4.3357499688       -0.9204688462
 H         -1.5690695711       -3.8069777609        0.7223303846
 H          1.3406383090       -3.5981377799       -0.3606736651
 H          0.7819331490       -3.0830929221        1.2798864256
 H         -0.2817663908       -1.9830202082       -1.4156316030
