  62
        -98.94540414
 C         -2.6373325500       -1.0680244299        0.2767724110
 C         -2.5341312599       -0.3063487703       -0.9128236993
 C         -3.1574653397        1.0247378798       -0.8758591096
 C         -3.7791983797        1.4323738802        0.2454642303
 C         -4.4063350895        2.7823045003        0.4374342599
 C         -3.4051465193        3.7786094104        1.0388267596
 C         -2.0539831394        3.8066973100        0.3231485796
 H         -1.4394355392        4.5655168501        0.8131752493
 H         -1.5464150295        2.8491081100        0.4673917698
 C         -2.1369004394        4.1090715496       -1.1795216505
 H         -3.1007085293        4.5632137396       -1.4134845506
 H         -1.3628937893        4.8371020894       -1.4311034808
 C         -1.9141687195        2.8952500193       -2.0840277402
 H         -0.9918578396        2.3844523993       -1.7909381601
 H         -1.7734205995        3.2561816290       -3.1065161303
 C         -3.0541194797        1.8685825394       -2.1145396199
 H         -3.9995435896        2.3756267995       -2.3180731700
 H         -2.8508622398        1.1731907092       -2.9340992397
 H         -3.8505270992        4.7746596904        1.0133868093
 H         -3.2326357093        3.5098834107        2.0836618697
 H         -4.7677363795        3.1484392401       -0.5212866802
 H         -5.2518420095        2.6751542306        1.1189593100
 O         -3.8628149597        0.6693571605        1.3658831705
 C         -3.2751371099       -0.5849500895        1.4179939708
 O         -3.3838535899       -1.1590989192        2.5213553110
 H         -0.3668307999       -0.7164208399        1.5511353408
 C          0.1802185200       -1.3138313602        0.8301742909
 C         -0.5005561602       -2.2863182103        0.1070999112
 C          0.2117163797       -3.0461335806       -0.8101985486
 C          1.5629032297       -2.8175553709       -1.0089420287
 C          2.2314228099       -1.8378633107       -0.2984800090
 C          1.5303936900       -1.0795546304        0.6304677308
 N          2.2044383802       -0.0793040103        1.3623563305
 S          2.8874223103        1.1651864194        0.4554017402
 O          2.9671048505        2.2924527796        1.3596839698
 O          2.1664602203        1.3800562891       -0.7778725999
 C          4.5309702202        0.5722687691        0.1160344703
 C          4.9488837002        0.4061625787       -1.1895999797
 C          6.2310798401       -0.0649176516       -1.4269458196
 C          7.0669441101       -0.3591378714       -0.3605400795
 C          6.6326234501       -0.1832365410        0.9450809604
 C          5.3526811402        0.2880387893        1.1893548403
 H          4.9757773203        0.4424753696        2.1865687003
 H          7.2856635701       -0.4128076508        1.7715705305
 H          8.0630223900       -0.7277662016       -0.5482702594
 H          6.5704432000       -0.2018729819       -2.4410736095
 H          4.2602860202        0.6412734885       -1.9855574797
 H          1.6369389402        0.3180415100        2.0983312804
 H          3.2813300199       -1.6530913509       -0.4567493190
 H          2.1022625896       -3.4094869411       -1.7324582485
 H         -0.2936265304       -3.8074934707       -1.3809833783
 C         -1.9823706302       -2.4364641300        0.3552283913
 H         -2.1233402502       -2.7833410197        1.3894301914
 C         -2.6645777903       -3.4082236302       -0.5836275084
 C         -2.6531885505       -4.8764677901       -0.2847054680
 C         -3.9191594404       -4.0899201799       -0.1302110081
 H         -4.7126123604       -4.2387185600       -0.8470138181
 H         -4.2693968903       -3.8696649996        0.8679931618
 H         -2.5804524306       -5.5699977103       -1.1086720778
 H         -2.1462125105       -5.1999729199        0.6116963421
 H         -2.6127432203       -3.0924478705       -1.6190317185
 O         -1.9535673000       -0.7145150907       -1.9515705492
