  62
        -98.93313008
 C          2.3926818153        1.2697793084       -0.2640316159
 C          2.0406070324       -0.0931396191       -0.4126412396
 C          2.9662906845       -1.0652824511        0.1891822512
 C          4.0505925489       -0.6337585530        0.8570221803
 C          5.0633256906       -1.4817666300        1.5804768799
 C          5.9117669460       -2.4274784626        0.7086429368
 C          5.3524718009       -3.8506521433        0.5900008791
 H          6.1821900744       -4.5588418461        0.6372959266
 H          4.7194891081       -4.0522009201        1.4551690249
 C          4.5760085591       -4.1572379391       -0.6941310992
 H          4.0324886050       -5.0920205818       -0.5406382279
 H          5.2849763922       -4.3189969348       -1.5092514676
 C          3.5911573753       -3.0809547985       -1.1510871345
 H          4.1391873626       -2.2463174153       -1.5945788337
 H          2.9719186214       -3.5010648098       -1.9460655719
 C          2.6853185599       -2.5226861514       -0.0360990748
 H          1.6371497638       -2.5947715120       -0.3335270618
 H          2.8175462430       -3.0850530558        0.8871180966
 H          6.8964073221       -2.4869049003        1.1750537737
 H          6.0482700589       -1.9870465108       -0.2786077654
 H          5.7241548120       -0.7745325388        2.0859608980
 H          4.5472347474       -2.0622512639        2.3488969543
 O          4.3409148364        0.6891827648        0.9959542701
 C          3.5298202553        1.6643892932        0.4452194909
 O          3.9199300653        2.8312196152        0.6511230454
 H         -0.9035513961        1.2050598045       -1.3717889814
 C         -0.9015612917        1.7206441406       -0.4248575400
 C          0.2365853134        2.3931866757       -0.0104715741
 C          0.2249611636        3.0237471902        1.2306600719
 C         -0.8991177390        2.9797558436        2.0338956135
 C         -2.0312186674        2.2979186964        1.6218373965
 C         -2.0244686872        1.6581822687        0.3903692937
 N         -3.1665537402        0.9502836295       -0.0347121683
 S         -3.8606174062       -0.0879196007        1.1056651569
 O         -4.7472454131        0.6856481852        1.9401945772
 O         -2.8340493559       -0.8314647973        1.8016313882
 C         -4.8101272867       -1.1671339665        0.0525448411
 C         -4.1898873459       -2.2754775672       -0.4929560701
 C         -4.9153900788       -3.1012002939       -1.3370872495
 C         -6.2398151403       -2.8039665118       -1.6224917854
 C         -6.8477064691       -1.6876033504       -1.0680397660
 C         -6.1283685222       -0.8580088385       -0.2223089762
 H         -6.5588754486        0.0160828639        0.2375340174
 H         -7.8777261987       -1.4614116757       -1.2915989415
 H         -6.8012400605       -3.4489779950       -2.2798003287
 H         -4.4450266631       -3.9705307092       -1.7679185997
 H         -3.1600809128       -2.4728502074       -0.2384666012
 H         -2.9846238447        0.4485275645       -0.8943639676
 H         -2.9080340458        2.2346244226        2.2463248866
 H         -0.8935033056        3.4732202736        2.9944957407
 H          1.1186875131        3.5328008241        1.5653182559
 C          1.5128753938        2.3813477109       -0.8162535501
 H          2.0501335408        3.3176829336       -0.6162590436
 C          1.2986363430        2.2506469510       -2.3095379035
 C          0.7308234949        3.4100155162       -3.0702754362
 C          2.1701474419        3.0316451529       -3.2445306712
 H          2.4740977319        2.5692000058       -4.1716421795
 H          2.9241979763        3.6706320451       -2.8085041257
 H          0.5059728918        4.3068655445       -2.5130825368
 H          0.0452794552        3.2111198112       -3.8796567261
 H          1.0158441644        1.2523365615       -2.6183689545
 O          1.0102705334       -0.4951940016       -1.0147499680
