  62
        -98.93837279
 C         -2.0614600134       -1.5940420483       -0.2788328061
 C         -2.4141898508       -0.5427239312       -1.1621717140
 C         -3.6747093415        0.1517392353       -0.8476469396
 C         -4.4304341003       -0.2459589626        0.1899191624
 C         -5.7424651720        0.3541979904        0.6170351740
 C         -5.5976281990        1.5863608990        1.5204847223
 C         -5.1108082266        2.8545065973        0.8179205946
 H         -5.7325997255        3.0459552792       -0.0571543108
 H         -5.2608939742        3.6836254412        1.5122244226
 C         -3.6328089597        2.8218795486        0.4029971714
 H         -3.1527406751        3.7620745287        0.6843433003
 H         -3.1168571127        2.0270220139        0.9472519907
 C         -3.3985399275        2.6269463985       -1.0953708267
 H         -3.7903554728        3.4875626156       -1.6425842933
 H         -2.3196189298        2.5821234111       -1.2707985272
 C         -4.0281779043        1.3521465132       -1.6728140091
 H         -5.1100057914        1.4646424014       -1.7416012065
 H         -3.6256507923        1.1967183204       -2.6769086841
 H         -4.9176656799        1.3405733170        2.3394345955
 H         -6.5797135127        1.7909766286        1.9528531659
 H         -6.3314669040        0.6133677632       -0.2630609863
 H         -6.2716422464       -0.4214551507        1.1747731199
 O         -4.0797392254       -1.2910477618        0.9859800725
 C         -2.8819123648       -1.9574792661        0.7934937822
 O         -2.6646615889       -2.8624032705        1.6247461852
 H          0.0340487471        0.2311997722       -0.2860334544
 C          0.5589406056       -0.3885461843        0.4250837104
 C          0.2835785139       -1.7475149375        0.5077924546
 C          0.9723011998       -2.5129249432        1.4428692077
 C          1.9091932149       -1.9354420351        2.2807597299
 C          2.1921726442       -0.5852559776        2.1841379951
 C          1.5139714721        0.1882964036        1.2494787302
 N          1.8004806029        1.5655887580        1.1016911748
 S          2.6670896120        1.9594064820       -0.2795101348
 O          2.9756657359        3.3666085852       -0.1559302164
 O          1.9313404321        1.5521175974       -1.4455627145
 C          4.1643959762        0.9986105241       -0.1273725896
 C          5.2681671447        1.5691573544        0.4760832102
 C          6.4032961969        0.7972594474        0.6652432927
 C          6.4105122799       -0.5291415698        0.2606435958
 C          5.2932993319       -1.0882738806       -0.3406977421
 C          4.1566171124       -0.3199224366       -0.5373185219
 H          3.2723460169       -0.7191533713       -1.0073666028
 H          5.2988170572       -2.1191127715       -0.6562479556
 H          7.2922742714       -1.1312238310        0.4129469609
 H          7.2748333133        1.2304253658        1.1290816973
 H          5.2180101181        2.6050454597        0.7708878327
 H          2.2737926673        1.9623867180        1.9027214321
 H          2.9259131143       -0.1279250090        2.8311478083
 H          2.4261317863       -2.5409803872        3.0089079838
 H          0.7493794982       -3.5665748021        1.5231057012
 C         -0.7640626692       -2.3819085886       -0.3722392219
 H         -0.9944704732       -3.3685662589        0.0620827946
 C         -0.2810044561       -2.6335472354       -1.7921641971
 C          0.7605867136       -1.8130907272       -2.4838564777
 C          1.0905024744       -3.1991720845       -2.0232112596
 H          1.2130413860       -3.9736892791       -2.7650544237
 H          1.7337821694       -3.3033051644       -1.1619458115
 H          0.6246906534       -1.6332367800       -3.5397943710
 H          1.1786135984       -0.9616873020       -1.9698886381
 H         -1.0805538856       -3.0140054709       -2.4203727602
 O         -1.7441902396       -0.1869269793       -2.1635538260
