  62
        -98.94083057
 C          1.9530056512        1.2537289183        0.5175881110
 C          1.9316927701       -0.0608541718        1.0546974807
 C          3.0689603996       -0.9268407825        0.7196206608
 C          4.0696139002       -0.4303298929       -0.0296269488
 C          5.2900235398       -1.1950705136       -0.4521829187
 C          5.0877789898       -1.8663922131       -1.8172678589
 C          3.7830288493       -2.6549067822       -1.9277484895
 H          2.9419358497       -1.9588601317       -1.8810260196
 H          3.7629616492       -3.1142580719       -2.9185004996
 C          3.6043349482       -3.7403444424       -0.8568245798
 H          3.2413509577       -4.6500258420       -1.3398711402
 H          4.5677540479       -3.9768609132       -0.4039677096
 C          2.5982002081       -3.3873765620        0.2403000800
 H          2.3703197074       -4.2996705320        0.7979116996
 H          1.6699553185       -3.0447066113       -0.2246349802
 C          3.0556517685       -2.3310824226        1.2549713004
 H          2.3409973983       -2.3282463423        2.0833167302
 H          4.0364262182       -2.6032918234        1.6501992806
 H          5.9339154894       -2.5300832937       -2.0047446688
 H          5.0863692605       -1.0921922129       -2.5881129987
 H          5.5202323691       -1.9445781040        0.3026880312
 H          6.1248216603       -0.4954789442       -0.5221484682
 O          4.0598150512        0.8311578272       -0.5242530185
 C          2.9922775317        1.6929142579       -0.3030093586
 O          3.1143373326        2.7864229179       -0.8888132582
 O          1.0024351296       -0.4849576614        1.7910909503
 C          0.7656762917        2.1339967290        0.8686217509
 C         -0.3243463481        2.0073611601       -0.1693319494
 C         -0.0644087976        2.2356592902       -1.5163675693
 C         -1.0649847174        2.0882861812       -2.4600752196
 C         -2.3445709078        1.7210766719       -2.0806212401
 C         -2.6162758583        1.4992840917       -0.7378136102
 C         -1.6086680485        1.6425844308        0.2085184901
 H         -1.8226893089        1.4495011107        1.2510677500
 N         -3.9257064887        1.1308312125       -0.3584837507
 S         -4.4448825296       -0.4066831570       -0.7769497913
 O         -4.1075149893       -0.6488720769       -2.1554248213
 O         -5.8470902997       -0.4594680762       -0.4340443417
 C         -3.5302583206       -1.4995572879        0.2962621587
 C         -2.1828056007       -1.6900749588        0.0602436090
 C         -1.4550466615       -2.4738396795        0.9410277990
 C         -2.0844216322       -3.0551138394        2.0309808087
 C         -3.4395565621       -2.8601475785        2.2501067483
 C         -4.1704670113       -2.0672293078        1.3802728983
 H         -5.2238125612       -1.8804566571        1.5143764881
 H         -3.9248427726       -3.3158504984        3.0983444481
 H         -1.5090403228       -3.6594040499        2.7143249287
 H         -0.3956862315       -2.6031903502        0.7915736893
 H         -1.7224160201       -1.2247931188       -0.7974166807
 H         -4.1177705388        1.2856733524        0.6218162493
 H         -3.1301704476        1.5867734127       -2.8058318004
 H         -0.8471513270        2.2634514913       -3.5029670795
 H          0.9320198627        2.5236098297       -1.8164414289
 H          0.3738058811        1.7249653491        1.8100749607
 C          1.1140830026        3.5921533587        1.0911527014
 C          0.2085148829        4.4342653491        1.9369517714
 C          1.5616997225        4.0416661081        2.4480442517
 H          2.3320138730        4.7952840675        2.5110026321
 H          1.6156114018        3.2974304578        3.2293134715
 H          0.0449016537        5.4612045993        1.6488530716
 H         -0.6555661076        3.9588164796        2.3758268110
 H          1.5812206831        4.0593338087        0.2345651517
