  62
        -98.93323258
 C         -2.5467177442       -1.3013982429        0.3600520245
 C         -2.9102823896       -0.1483537914        1.0969092103
 C         -4.0740884886        0.6247494212        0.6247165895
 C         -4.7254312218        0.1986916260       -0.4734180235
 C         -5.9095225779        0.8240433242       -1.1622727693
 C         -5.5305609339        2.0646684089       -1.9859308865
 C         -4.5857255800        3.0364657055       -1.2842075258
 H         -3.6650700536        2.5137654806       -1.0173574392
 H         -4.3172486268        3.8158604054       -2.0023589046
 C         -5.1588647699        3.7209534343       -0.0454383517
 H         -6.0655925615        4.2632041189       -0.3226775579
 H         -4.4213955223        4.4558638903        0.2877822077
 C         -5.4811511332        2.8050554044        1.1376841694
 H         -6.4175104333        2.2756750955        0.9830247488
 H         -5.6272444154        3.4445680100        2.0131443087
 C         -4.3744110873        1.8190532508        1.4980489226
 H         -3.4283262649        2.3629038818        1.6039490553
 H         -4.5817406944        1.4093980026        2.4941577452
 H         -5.0392319513        1.7258786404       -2.9012252353
 H         -6.4477192567        2.5847168336       -2.2675898062
 H         -6.3118568901        0.0674077863       -1.8395066563
 H         -6.6811392259        1.0627855266       -0.4364123388
 O         -4.3351364405       -0.9117278815       -1.1587487938
 C         -3.2448622730       -1.6817485467       -0.7861003302
 O         -3.0295693480       -2.6452449468       -1.5427653920
 H          0.8114185137       -1.0538715425        2.1164529128
 C          0.9300769750       -1.0431688272        1.0413566357
 C         -0.0873341830       -1.5387295506        0.2405930996
 C          0.0623189062       -1.4826863554       -1.1422564808
 C          1.2140480946       -0.9585495780       -1.6991470538
 C          2.2325392314       -0.4739925633       -0.8957831239
 C          2.0833156620       -0.5036031407        0.4836770714
 N          3.1087590465       -0.0144701551        1.3071733617
 S          3.8592938668        1.4333693522        0.9118137825
 O          4.4003652097        1.9242016830        2.1602402465
 O          2.9677983165        2.3212386878        0.2026285364
 C          5.2035372032        0.9360692580       -0.1456512986
 C          6.0585128252       -0.0504272373        0.3056702414
 C          7.1137874116       -0.4422254497       -0.5022932540
 C          7.2980681173        0.1579707037       -1.7390613426
 C          6.4341345922        1.1504323226       -2.1756757851
 C          5.3754752829        1.5460239341       -1.3727490912
 H          4.6751622234        2.3089482002       -1.6742375186
 H          6.5791917226        1.6167830130       -3.1369286611
 H          8.1196781088       -0.1494977717       -2.3665171876
 H          7.7878183454       -1.2136124047       -0.1662296131
 H          5.8831747356       -0.4899627328        1.2732589645
 H          2.8971313353       -0.0544222185        2.2937523160
 H          3.1271336347       -0.0578127457       -1.3289551103
 H          1.3208698526       -0.9244563646       -2.7728584714
 H         -0.7364965249       -1.8493535056       -1.7696195856
 C         -1.3463851811       -2.0807358351        0.8672753292
 H         -1.3023924574       -1.8500088977        1.9437769760
 C         -1.4959872343       -3.5892480620        0.7337449699
 C         -0.6402823673       -4.4377623093       -0.1536344298
 C         -0.4567424939       -4.4919509695        1.3312832150
 H         -0.7789424615       -5.3724791700        1.8660274918
 H          0.4263162329       -4.0236400509        1.7401126964
 H          0.1239818498       -3.9569340157       -0.7429554999
 H         -1.1141585333       -5.2696879227       -0.6516580280
 H         -2.5292992860       -3.9027111393        0.8396368479
 O         -2.2845044873        0.2255415561        2.1276241238
