  62
        -98.94188947
 C         -1.2542610377       -1.8688582510       -0.1692661518
 C         -1.3493285358       -0.6925792710       -0.9532557890
 C         -2.6366125106        0.0192672328       -0.8824116831
 C         -3.5777866746       -0.3924617139       -0.0143279890
 C         -4.8890040809        0.2969309165        0.2243486625
 C         -4.7645443881        1.3647829620        1.3205967053
 C         -3.5944197084        2.3274055057        1.1168437022
 H         -3.6279635737        3.0547403479        1.9303591133
 H         -2.6562292130        1.7764922748        1.2120168162
 C         -3.6097798459        3.0620003966       -0.2304393383
 H         -4.6037914194        3.0012351452       -0.6750165197
 H         -3.3964782429        4.1188301225       -0.0601486092
 C         -2.5737098439        2.5541577610       -1.2339365560
 H         -2.5278616706        3.2619116851       -2.0658724628
 H         -1.5871735331        2.5321751869       -0.7671208193
 C         -2.8434319129        1.1684116297       -1.8296958971
 H         -2.1275276884        1.0174713443       -2.6433147093
 H         -3.8513701985        1.1348148280       -2.2497258475
 H         -5.6990492081        1.9275930722        1.3587145647
 H         -4.6323913733        0.8602673062        2.2804263391
 H         -5.6186013296       -0.4512969901        0.5384996394
 H         -5.2278769947        0.7525541849       -0.7041516962
 O         -3.4122200474       -1.4701272162        0.7938254454
 C         -2.2767256703       -2.2546428795        0.7038663706
 O         -2.2902513375       -3.2571715077        1.4461318870
 O         -0.4311948858       -0.2467620089       -1.6908256704
 C         -0.0607465891       -2.8112278484       -0.2262975303
 C          1.0757604965       -2.3157788758        0.6351353577
 C          1.3157817447       -2.9165662686        1.8669697269
 C          2.3613506932       -2.4926541358        2.6663141557
 C          3.1864229441       -1.4638403238        2.2507674533
 C          2.9474867533       -0.8478291786        1.0253840503
 C          1.8929829862       -1.2703273983        0.2265041491
 H          1.7085516551       -0.7737233277       -0.7125784339
 N          3.7870737613        0.1881163803        0.6005369492
 S          3.4245725677        1.3373264196       -0.5387040610
 O          3.1868676873        0.7326589351       -1.8240485206
 O          4.5543939611        2.2432657351       -0.4778305416
 C          1.9945833139        2.2534477569        0.0192458655
 C          1.6060199163        3.3065011115       -0.7861214627
 C          0.5830751108        4.1397901505       -0.3661346068
 C         -0.0391325829        3.9057695778        0.8511695675
 C          0.3521014321        2.8388571320        1.6426569512
 C          1.3826897655        2.0064271474        1.2303976534
 H          1.6924542490        1.1740712859        1.8415252224
 H         -0.1384855535        2.6495629308        2.5844354765
 H         -0.8365975460        4.5526489676        1.1805721530
 H          0.2724848314        4.9644240135       -0.9873121699
 H          2.1175157937        3.4522581660       -1.7241713004
 H          4.4626231552        0.5173445707        1.2727701253
 H          4.0102150169       -1.1361534360        2.8661250769
 H          2.5381276758       -2.9685622180        3.6187921811
 H          0.6652890976       -3.7140044323        2.1958338918
 H         -0.4175725471       -3.7522897361        0.2149144015
 C          0.3946587492       -3.0986448335       -1.6430972036
 C          1.1736906619       -4.3497315363       -1.9108362955
 C         -0.2384403513       -4.2266471373       -2.3980655781
 H         -0.4127117508       -4.1042843252       -3.4565907766
 H         -1.0034836439       -4.7991726722       -1.8933723106
 H          1.9737884341       -4.3115863160       -2.6342076326
 H          1.3653383259       -5.0081991075       -1.0768478428
 H          0.6582121432       -2.2132717913       -2.2065866827
