  62
        -98.93819821
 C         -1.7756585662       -0.2414458444       -0.8758800559
 C         -2.9324816531        0.5639792378       -1.0254055625
 C         -4.2133968987       -0.0923186986       -0.7081183942
 C         -4.2254234946       -1.3756235803       -0.3081970866
 C         -5.4510918566       -2.1372824845        0.1041352719
 C         -5.7005063905       -2.0134101333        1.6138161815
 C         -5.6470073261       -0.5765629213        2.1330865956
 H         -4.6283062162       -0.1965905677        2.0261152390
 H         -5.8665809920       -0.6089303534        3.2025105256
 C         -6.6219842741        0.3855821731        1.4401190189
 H         -7.1152105759        0.9931826225        2.2018634901
 H         -7.3987885995       -0.1810538731        0.9253703050
 C         -5.9650067853        1.3540155422        0.4548428750
 H         -5.1263204672        1.8584819945        0.9413028459
 H         -6.6985759270        2.1207113896        0.1912406747
 C         -5.4605803723        0.7338731906       -0.8542566265
 H         -5.1992013706        1.5536517815       -1.5299599390
 H         -6.2586949002        0.1490530801       -1.3159206843
 H         -4.9396363009       -2.5952048885        2.1391745000
 H         -6.6763080802       -2.4475692260        1.8392266479
 H         -6.3097057313       -1.7609960763       -0.4486199752
 H         -5.3021965815       -3.1891536806       -0.1454244042
 O         -3.0965945507       -2.1200337183       -0.1865824719
 C         -1.8547782440       -1.5727383847       -0.4565443952
 O         -0.9034302107       -2.3644570308       -0.2990206950
 H          2.1123757823       -0.0948337653       -0.1789922578
 C          1.5555427287        0.6198756146        0.4069405714
 C          0.2420880970        0.9087768740        0.0680870689
 C         -0.4693304688        1.8084645431        0.8547744292
 C          0.1281660085        2.4028343754        1.9513890707
 C          1.4488113939        2.1353611036        2.2670647671
 C          2.1697777536        1.2415295641        1.4848440509
 N          3.5115298783        0.9483213246        1.7652419560
 S          4.5986346269        0.8178386603        0.4951075083
 O          5.8840092130        1.1280338126        1.0825441422
 O          4.1948650438        1.6313236459       -0.6268295755
 C          4.5637470028       -0.9065483337        0.0578185614
 C          4.2858183109       -1.2803113731       -1.2418414900
 C          4.2742485740       -2.6282950739       -1.5637468224
 C          4.5412131376       -3.5732931076       -0.5853772681
 C          4.8229087508       -3.1812037987        0.7147124660
 C          4.8357679765       -1.8353472651        1.0426772040
 H          5.0541031464       -1.4914425351        2.0399074389
 H          5.0298269518       -3.9203072690        1.4718514132
 H          4.5287089048       -4.6216150045       -0.8387980092
 H          4.0536190557       -2.9345855842       -2.5738090710
 H          4.0786561524       -0.5137469692       -1.9724960716
 H          3.9037028697        1.4562646352        2.5447062454
 H          1.9186403434        2.6146939906        3.1126044787
 H         -0.4355882694        3.0958306801        2.5579278230
 H         -1.4887508977        2.0465680416        0.5919571354
 C         -0.3675281519        0.2600167209       -1.1478450365
 H          0.2229052446       -0.6454638419       -1.3621546405
 C         -0.2728948178        1.1525819070       -2.3785622489
 C         -0.0916950808        2.6358546012       -2.3163396451
 C          1.0385201210        1.7662779848       -2.7739095327
 H          1.3056771378        1.7762231801       -3.8202496317
 H          1.8813957610        1.6505278653       -2.1070148951
 H         -0.0157089200        3.0994843681       -1.3454015354
 H         -0.6200955767        3.2359932340       -3.0412395094
 H         -0.8948779856        0.7823100621       -3.1878259131
 O         -2.9229574019        1.7650234103       -1.3959594452
