  62
        -98.93523313
 C          2.3576207379        1.4007988442        0.0094309092
 C          3.0304611141        0.6547936186        1.0086834830
 C          3.8500782170       -0.4910224185        0.5716524921
 C          3.9166406015       -0.7694395528       -0.7430805830
 C          4.6471950450       -1.8945516350       -1.4268341584
 C          3.9294223105       -3.2448128146       -1.2746525976
 C          3.4212906404       -3.5464322748        0.1327532573
 H          2.7250481044       -2.7626577751        0.4387775544
 H          2.8513363497       -4.4784227965        0.0862800793
 C          4.5058027517       -3.7125721084        1.1949835229
 H          4.0079431940       -4.0229581875        2.1170996727
 H          5.1797846784       -4.5176923648        0.8942178531
 C          5.3405254567       -2.4672941016        1.5034837199
 H          6.0974283401       -2.3017248849        0.7415282939
 H          5.8767794992       -2.6596195900        2.4372009273
 C          4.5277828974       -1.1952675191        1.7220930255
 H          5.1750891945       -0.4418332435        2.1867301013
 H          3.7418427333       -1.3929129452        2.4599966521
 H          4.6098953186       -4.0352809908       -1.5960281471
 H          3.0665235331       -3.2480022271       -1.9457789871
 H          4.6889504251       -1.6411869330       -2.4885734719
 H          5.6674312882       -1.9558055585       -1.0600272201
 O          3.2482533975       -0.0292489791       -1.6717906138
 C          2.4503190567        1.0521446074       -1.3371286468
 O          1.9042790928        1.5910321923       -2.3198211996
 O          2.9547871018        0.9380805366        2.2348247525
 C          1.5155904935        2.5730167928        0.4848849876
 C          0.0882980810        2.1351967471        0.6917701340
 C         -0.5510340415        2.3072632489        1.9131956708
 C         -1.8480907147        1.8596707650        2.0984626572
 C         -2.5310030608        1.2309044794        1.0726655169
 C         -1.8988305030        1.0514429922       -0.1508147995
 C         -0.6028344156        1.5058280390       -0.3354094026
 H         -0.1151182829        1.3597198352       -1.2887157859
 N         -2.5830405203        0.3935320984       -1.1976031282
 S         -2.9180046911       -1.2321443477       -0.9054078331
 O         -1.9389097357       -1.8178230371       -0.0167050994
 O         -3.0501649511       -1.8424325022       -2.2104180071
 C         -4.5138784693       -1.1918221904       -0.1175576973
 C         -4.6602291324       -1.6701584135        1.1696273238
 C         -5.9131977210       -1.6262414472        1.7615105090
 C         -6.9905013072       -1.1073723464        1.0595646832
 C         -6.8267509193       -0.6327199696       -0.2335545445
 C         -5.5775077255       -0.6750049688       -0.8316138694
 H         -5.4060976120       -0.3227577651       -1.8350499141
 H         -7.6669145897       -0.2304160913       -0.7761896009
 H         -7.9637972921       -1.0731726039        1.5230267805
 H         -6.0422593744       -1.9950478205        2.7663749530
 H         -3.7918911678       -2.0588586794        1.6772322764
 H         -2.0977619462        0.4730311136       -2.0815093423
 H         -3.5397082976        0.8771035196        1.2108948499
 H         -2.3311703301        1.9984737426        3.0534374664
 H         -0.0166783807        2.7772729913        2.7257377547
 H          1.9291635960        2.8275757150        1.4734102323
 C          1.6503217595        3.8065195257       -0.3973568655
 C          0.5329125652        4.3702102507       -1.2184587076
 C          0.9902698778        5.0902246462        0.0121237615
 H          1.5385199872        6.0133677199       -0.0975282559
 H          0.3430129366        5.0579583636        0.8756132175
 H          0.7835389503        4.7771824766       -2.1862917469
 H         -0.4247758140        3.8748488628       -1.1923823124
 H          2.6435267460        3.8864715914       -0.8277037836
