  62
        -98.93906299
 C         -2.4251235005       -1.2223050302       -0.0300267899
 C         -3.0680498607       -0.3552069498        0.8819942796
 C         -3.6547619906        0.8782397999        0.3271197090
 C         -3.5330407802        1.1128027494       -0.9928206811
 C         -3.9869248000        2.3371733592       -1.7376083517
 C         -3.0116629401        3.5189612192       -1.5590581419
 C         -2.3652378005        3.6288405398       -0.1779614617
 H         -1.8969331905        2.6742471699        0.0744114988
 H         -1.5580811605        4.3641021198       -0.2437130218
 C         -3.3000249908        4.0609687102        0.9511310179
 H         -3.5968051008        5.0990125901        0.7820314274
 H         -2.7299252511        4.0264665105        1.8832442180
 C         -4.5720742408        3.2324725202        1.1229866478
 H         -5.2425537906        3.4022986299        0.2849437276
 H         -5.0848482011        3.6055162405        2.0146409075
 C         -4.3589199109        1.7366160103        1.3494271784
 H         -3.7962176911        1.5957487307        2.2789265987
 H         -5.3385998809        1.2745991704        1.5237824883
 H         -2.2027358799        3.3963129590       -2.2831912616
 H         -3.5365792501        4.4464631691       -1.7916877323
 H         -4.0232359697        2.0736621588       -2.7964353716
 H         -4.9930316901        2.6016191293       -1.4246126421
 O         -2.8917588800        0.2572725791       -1.8352992306
 C         -2.3090772501       -0.9144019907       -1.3855759100
 O         -1.7400097698       -1.5790376110       -2.2711685396
 O         -3.1324731811       -0.5899044594        2.1209257197
 C         -1.7513141206       -2.4765504400        0.5015865108
 C         -0.2600587005       -2.3107797700        0.3387455211
 C          0.5473452897       -3.1785738003       -0.3825613783
 C          1.8978873397       -2.9120780903       -0.5357454781
 C          2.4700500495       -1.7855086801        0.0257440817
 C          1.6720777393       -0.9160868798        0.7586836811
 C          0.3239546293       -1.1880039298        0.9147440209
 H         -0.2986579709       -0.5047901696        1.4804714604
 N          2.2466093591        0.2400730204        1.3312938909
 S          2.8472231894        1.3655398500        0.2304372406
 O          2.8264656892        2.6315261503        0.9315199901
 O          2.1302880398        1.3136461995       -1.0237714496
 C          4.5365981795        0.8565916800       -0.0030863587
 C          4.9783817199        0.4924256095       -1.2596434485
 C          6.2983422699        0.0982849295       -1.4165822780
 C          7.1467941296        0.0748644099       -0.3202143977
 C          6.6873368893        0.4455596803        0.9350582120
 C          5.3698491992        0.8423278304        1.0986343915
 H          4.9724031389        1.1430291007        2.0535083413
 H          7.3503686790        0.4257744007        1.7848495022
 H          8.1725465296       -0.2340775702       -0.4452419373
 H          6.6570214402       -0.1899126509       -2.3916264577
 H          4.2791257001        0.5196064392       -2.0802305387
 H          1.6202627390        0.7096169506        1.9712136205
 H          3.5192441596       -1.5721999301       -0.0987288181
 H          2.5125733599       -3.5909742005       -1.1067885676
 H          0.1170725598       -4.0543822804       -0.8392364081
 H         -1.9780232609       -2.4954775296        1.5776842007
 C         -2.3109306604       -3.7268164702       -0.1389785589
 C         -2.1928080306       -5.0426237599        0.5689094416
 C         -3.5259193305       -4.3675594300        0.4596772510
 H         -4.2661840603       -4.7874274003       -0.2045652791
 H         -3.9438454908       -3.9109227897        1.3450568407
 H         -2.0191428304       -5.9307622802       -0.0192351180
 H         -1.7053838308       -5.0484134796        1.5320053117
 H         -2.2340301801       -3.7151771906       -1.2198334489
