  62
        -98.94383947
 C         -1.9762155794       -1.3504584468        0.0542015949
 C         -1.9093861320       -0.1067179377       -0.6193818851
 C         -3.1972026905        0.5614499198       -0.8457818810
 C         -4.3381217276       -0.0261112064       -0.4421804287
 C         -5.7266561437        0.5276516014       -0.6132543953
 C         -6.1380549181        1.5243333719        0.4792923181
 C         -5.4585325392        2.8924665114        0.4036794345
 H         -5.5740727718        3.2994133191       -0.6013660055
 H         -5.9954521694        3.5543793317        1.0861658489
 C         -3.9729043339        2.8855330805        0.7909399154
 H         -3.7687557797        3.7178846770        1.4683504266
 H         -3.7429071752        1.9673854050        1.3367270951
 C         -3.0092546173        3.0144137959       -0.3888122801
 H         -3.1361694714        3.9917784813       -0.8597225384
 H         -1.9876960610        2.9559028779       -0.0038526146
 C         -3.1773293684        1.9286682702       -1.4595907727
 H         -4.0865423970        2.1038683275       -2.0340125673
 H         -2.3204586248        1.9787315096       -2.1354729751
 H         -7.2169337856        1.6737595612        0.3943495386
 H         -5.9418081817        1.0737872820        1.4551661079
 H         -5.8159177272        1.0007851318       -1.5914832808
 H         -6.4087208186       -0.3245055880       -0.5754644449
 O         -4.3605306491       -1.2380995752        0.1748261236
 C         -3.1848514430       -1.9164894753        0.4573140402
 O         -3.3456716596       -2.9970030316        1.0615027839
 O         -0.8372705446        0.4198540635       -1.0091737596
 C         -0.7000040436       -2.1106130188        0.3608231849
 C          0.2530512904       -1.2590487464        1.1651887724
 C         -0.2428172289       -0.4152338365        2.1549541585
 C          0.6040159394        0.3857028623        2.8973120217
 C          1.9708662260        0.3521968060        2.6828002880
 C          2.4793514106       -0.5003296132        1.7135655538
 C          1.6249927135       -1.2998158336        0.9630653788
 H          2.0394666910       -1.9529428265        0.2104337293
 N          3.8756504847       -0.5382568388        1.5022201369
 S          4.5728915132        0.8136056623        0.7971873361
 O          5.9905224364        0.5388849606        0.7380817823
 O          4.1751321346        1.9818672510        1.5386778077
 C          3.9009305164        0.8539119691       -0.8544060566
 C          2.5746968614        1.1979379183       -1.0235976457
 C          2.0243651994        1.1406033762       -2.2941406760
 C          2.8088310114        0.7522648710       -3.3691538325
 C          4.1427933777        0.4191616866       -3.1847121873
 C          4.6939982954        0.4590412166       -1.9144094260
 H          5.7223240424        0.1981148164       -1.7222244935
 H          4.7498364815        0.1205226390       -4.0244050912
 H          2.3754157416        0.7071910798       -4.3561957828
 H          0.9783713560        1.3706998700       -2.4166852282
 H          1.9801058899        1.4957169708       -0.1753154371
 H          4.1807762046       -1.3607796779        0.9995010512
 H          2.6444825280        0.9839944773        3.2378957749
 H          0.1970331805        1.0420752658        3.6520059545
 H         -1.3099836069       -0.3858940813        2.3298876060
 H         -0.9974430658       -2.9689747776        0.9816214870
 C         -0.0900543733       -2.6274830544       -0.9276068457
 C          0.6510946387       -3.9298816557       -0.9531534058
 C         -0.7038318616       -3.8256871492       -1.5846774112
 H         -0.7765831736       -3.8444825347       -2.6615762559
 H         -1.5410589217       -4.2892316920       -1.0828311891
 H          1.5092405068       -4.0231824680       -1.6021198417
 H          0.7343830134       -4.4792143055       -0.0272566687
 H          0.2576572807       -1.8264878080       -1.5704103848
