  62
        -98.94093634
 C          1.7408114670        1.4358236336        0.4380071368
 C          1.8507371738        0.2450773711        1.2021568605
 C          3.1001003089       -0.5092897527        1.0586623954
 C          4.0391572102       -0.0779351199        0.1970787734
 C          5.3706281002       -0.7284592343       -0.0631080798
 C          5.3091366848       -1.8923840182       -1.0619323711
 C          4.6803569331       -3.1791220428       -0.5256328411
 H          5.1619701813       -3.4522921180        0.4139203189
 H          4.9034185404       -3.9678093248       -1.2469158909
 C          3.1597337527       -3.1112466642       -0.3248565152
 H          2.7009562185       -4.0158774006       -0.7304087682
 H          2.7565444114       -2.2641248070       -0.8851777104
 C          2.7218806169       -2.9955477009        1.1352114169
 H          3.0306712357       -3.8892999064        1.6819698040
 H          1.6309987330       -2.9438377000        1.1720347782
 C          3.2730937641       -1.7630778993        1.8631646804
 H          4.3257730580       -1.9097561921        2.1058811572
 H          2.7148901277       -1.6381991539        2.7946329999
 H          6.3348041465       -2.1153231050       -1.3647142140
 H          4.7654788937       -1.5619223195       -1.9499162433
 H          5.8002439625       -1.0757852548        0.8770532040
 H          6.0193660248        0.0468049402       -0.4761935842
 O          3.8804347678        1.0435468060       -0.5507440772
 C          2.7390771876        1.8330414460       -0.4534651080
 O          2.7577261431        2.8260225777       -1.2017363610
 O          0.9465544682       -0.1584452136        1.9830112717
 C          0.4856666811        2.2637219384        0.6491426693
 C         -0.5910546360        1.8871578609       -0.3350665610
 C         -0.3562097429        1.8914169198       -1.7073117161
 C         -1.3628551500        1.5455439235       -2.5898524122
 C         -2.6109785139        1.1676126544       -2.1242249915
 C         -2.8509494334        1.1473794898       -0.7563350959
 C         -1.8456504090        1.5186685558        0.1268274256
 H         -2.0477607196        1.4896148333        1.1870067151
 N         -4.1001529616        0.7498893010       -0.2417506078
 S         -4.1099856927       -0.5133736228        0.8642369460
 O         -5.4916810177       -0.9368911842        0.9243924434
 O         -3.5225177292       -0.0834455897        2.1051271958
 C         -3.1252632666       -1.7682097212        0.0670073874
 C         -3.7754131471       -2.6467383686       -0.7791288612
 C         -3.0312829824       -3.5654322206       -1.4999257358
 C         -1.6499390224       -3.5758432968       -1.3789221644
 C         -1.0136380953       -2.6854549132       -0.5288082379
 C         -1.7517921362       -1.7726700724        0.2093281763
 H         -1.2700874578       -1.0830161064        0.8855674517
 H          0.0609412908       -2.6867908501       -0.4356381932
 H         -1.0642311445       -4.2807474787       -1.9474991927
 H         -3.5261916459       -4.2625102110       -2.1566898066
 H         -4.8507063519       -2.5999603019       -0.8429624778
 H         -4.7960433155        0.5797198015       -0.9549567057
 H         -3.3927950691        0.8892260291       -2.8144623933
 H         -1.1714743824        1.5617325132       -3.6520766292
 H          0.6203279356        2.1758979156       -2.0694271228
 H          0.1253385947        1.9698852956        1.6488710869
 C          0.7552708487        3.7619485085        0.6940509352
 C          0.2714484289        4.7288019907       -0.3404869865
 C         -0.3640833608        4.7081808587        1.0150971182
 H         -0.1741862180        5.5259827595        1.6936208668
 H         -1.3564950510        4.2890708641        1.0955078395
 H          0.9240898105        5.5488200200       -0.5980889223
 H         -0.2961492256        4.3481275293       -1.1743858652
 H          1.7199859156        3.9841793207        1.1392796195
