  62
        -98.93880803
 C         -2.4191747599       -0.9567254696       -0.2202125400
 C         -2.4683411502        0.3625924205        0.2910435896
 C         -3.7927883704        0.8253907704        0.7255523092
 C         -4.8508013202       -0.0020726998        0.6483425992
 C         -6.2584720704        0.3177829501        1.0732866388
 C         -7.0760650503        1.0667502198        0.0119418585
 C         -6.6880293804        2.5314123198       -0.1945146118
 H         -7.4748841804        2.9888078395       -0.7976324721
 H         -6.6774764007        3.0423966400        0.7686898980
 C         -5.3417690503        2.7363549698       -0.9030641216
 H         -5.0456249101        1.8088947497       -1.3985780913
 H         -5.4522521903        3.4938259096       -1.6823447218
 C         -4.2056117406        3.1915382502        0.0128955385
 H         -4.4311872208        4.1830667302        0.4116736182
 H         -3.2936109905        3.2677232702       -0.5845774413
 C         -3.9234813007        2.2454551905        1.1873485888
 H         -2.9718879608        2.5342509908        1.6403043290
 H         -4.7093271909        2.3317360006        1.9373919187
 H         -6.9923633900        0.5302896495       -0.9360280214
 H         -8.1228226803        1.0308646697        0.3225307082
 H         -6.7472938403       -0.6382361299        1.2728160590
 H         -6.2398299507        0.8978949304        1.9962906187
 O         -4.7536436400       -1.2749638199        0.1784595396
 C         -3.5460249198       -1.7760808198       -0.2796487601
 O         -3.6027262795       -2.9505736199       -0.6990201598
 H          1.4772780101       -0.5270900792       -0.7141837393
 C          1.1877614300       -0.9636592990        0.2252549108
 C         -0.0762068300       -1.5091514091        0.3855875206
 C         -0.4120868002       -2.0760842789        1.6124982207
 C          0.4941085996       -2.0905517685        2.6540278709
 C          1.7575538696       -1.5514867583        2.4880946211
 C          2.1056832898       -0.9844504186        1.2676420210
 N          3.3734257197       -0.3930563884        1.1094049011
 S          4.3849856500       -0.6753827386       -0.2063187086
 O          3.6315268003       -0.7073972790       -1.4306782887
 O          5.2089143002       -1.8358358084        0.0704717019
 C          5.3858713898        0.7966422616       -0.1397049187
 C          6.6795334797        0.7359303319        0.3398375416
 C          7.4263713895        1.9021496520        0.4027410714
 C          6.8684165294        3.1018839818       -0.0111742790
 C          5.5672553895        3.1465810515       -0.4903376793
 C          4.8157946097        1.9843989114       -0.5552252092
 H          3.8020600098        1.9730478311       -0.9218116094
 H          5.1360371295        4.0812184613       -0.8115112796
 H          7.4505015193        4.0086098519        0.0383386109
 H          8.4381918694        1.8712367422        0.7737629417
 H          7.0746445498       -0.2197507980        0.6442427419
 H          3.9321440795       -0.4717357481        1.9494376713
 H          2.4674573694       -1.5630304880        3.3018757612
 H          0.2188420295       -2.5299123483        3.6012865210
 H         -1.3988364001       -2.5025324490        1.7370170206
 C         -1.1040321597       -1.5262243696       -0.7204550996
 H         -1.3046339995       -2.5774841096       -0.9762986094
 C         -0.6613565096       -0.7994000798       -1.9725244997
 C          0.2153999208       -1.4897704899       -2.9717066293
 C         -1.2219543192       -1.2183925802       -3.2970698297
 H         -1.4521749592       -0.4550494704       -4.0251327099
 H         -1.9114438791       -2.0504055903       -3.3030042396
 H          0.9818856508       -0.9164495799       -3.4710025193
 H          0.5062781009       -2.5078377698       -2.7597737590
 H         -0.5107734197        0.2614778203       -1.8076020799
 O         -1.4643015704        1.1151817007        0.3829931997
