  62
        -98.93821982
 C          2.6728880922       -1.1966090971       -0.2262426661
 C          3.0807307667       -0.2569113089       -1.2081123693
 C          4.2849021083        0.5221237729       -0.9051882206
 C          4.9450982854        0.3025926717        0.2461179441
 C          6.2073079199        0.9910958427        0.6897387483
 C          5.9739504286        2.3477490930        1.3684036883
 C          5.5506021190        3.4795568218        0.4312809429
 H          5.6358331537        4.4107133004        0.9949504083
 H          6.2498790394        3.5394010372       -0.4033220917
 C          4.1167692800        3.3561369427       -0.1030940116
 H          3.5575539490        2.6469751820        0.5117035967
 H          3.6116919880        4.3208109364       -0.0169967384
 C          4.0200591708        2.9237831255       -1.5662694991
 H          2.9624859006        2.8306370196       -1.8263061877
 H          4.4582447259        3.6931449068       -2.2059713224
 C          4.7027020020        1.5850879144       -1.8757326471
 H          5.7860578444        1.7038471508       -1.8668418913
 H          4.3931595430        1.2641630402       -2.8734522130
 H          5.2222780705        2.2221312419        2.1510487265
 H          6.9110092321        2.6355188538        1.8506578838
 H          6.8733633006        1.1197015485       -0.1640139694
 H          6.6881514332        0.3244945515        1.4089080364
 O          4.5342589042       -0.6176195361        1.1558158885
 C          3.3803715170       -1.3713540113        0.9642303725
 O          3.1257147892       -2.1369384210        1.9108296587
 O          2.4676436057       -0.0880246262       -2.2968356033
 C          1.4245796602       -2.0010889651       -0.5409681703
 C          0.1920756935       -1.3182925288       -0.0050365107
 C          0.0956156442       -0.9400105944        1.3306285218
 C         -1.0495739439       -0.3242226375        1.8019188310
 C         -2.1145976153       -0.0659694959        0.9561188011
 C         -2.0272821317       -0.4343025436       -0.3793195073
 C         -0.8779496922       -1.0590471467       -0.8485604502
 H         -0.8090836583       -1.3348455856       -1.8924301202
 N         -3.0931896914       -0.1552539978       -1.2479643649
 S         -4.6569331443       -0.5287846899       -0.7697354229
 O         -4.6760479440       -1.6541121362        0.1352230446
 O         -5.3981377623       -0.6812753667       -2.0022770378
 C         -5.2153334557        0.9406913262        0.0654905069
 C         -5.7530296724        0.8478210535        1.3341942346
 C         -6.1967197985        2.0024684465        1.9601095525
 C         -6.0964978032        3.2223307412        1.3090286309
 C         -5.5557116487        3.2981506318        0.0339817380
 C         -5.1115097526        2.1476986001       -0.5977687854
 H         -4.6875152817        2.1648140569       -1.5879338998
 H         -5.4786372781        4.2488952723       -0.4686510092
 H         -6.4417274566        4.1195004407        1.7981509444
 H         -6.6173518295        1.9457198506        2.9512470773
 H         -5.8059988394       -0.1213932116        1.8043048749
 H         -2.9276666354       -0.4257677978       -2.2063891782
 H         -3.0072776963        0.4146594792        1.3215981414
 H         -1.1135026936       -0.0393643161        2.8412621748
 H          0.9251565039       -1.1396871685        1.9923192343
 H          1.3562393110       -1.9818010658       -1.6407194329
 C          1.5248332963       -3.4622835951       -0.1261237263
 C          0.7337547895       -4.0732794510        0.9869812609
 C          0.4002810124       -4.4068807972       -0.4342377680
 H          0.6362457784       -5.3914863545       -0.8084932688
 H         -0.5064775385       -3.9847785746       -0.8425294401
 H          1.2244826227       -4.8159414963        1.5971048299
 H          0.0484779347       -3.4468065429        1.5354515476
 H          2.5302897144       -3.8483447456       -0.2611196490
