  62
        -98.94033238
 C         -2.1621907241       -1.2541659665       -0.0937909374
 C         -2.4451142937       -0.0431226893       -0.7737056468
 C         -3.8373059856        0.4298150827       -0.6865633690
 C         -4.7440099215       -0.2895519816       -0.0026803556
 C         -6.1766806996        0.1051942515        0.2057102310
 C         -6.3454804648        0.9152477350        1.4987308908
 C         -5.3457014472        2.0626708437        1.6441755182
 H         -5.5797595218        2.5814254577        2.5763466773
 H         -4.3398198216        1.6497941449        1.7507586036
 C         -5.3585131725        3.0673427609        0.4835946199
 H         -5.3341490642        4.0783727166        0.8957423394
 H         -6.2869477054        2.9702108834       -0.0804645075
 C         -4.1702936915        2.9486404289       -0.4728953584
 H         -4.1627760828        3.8325089534       -1.1165056063
 H         -3.2373742443        2.9528520975        0.0970596159
 C         -4.1696511325        1.7170342631       -1.3872129475
 H         -5.1290219762        1.6405218318       -1.9031801954
 H         -3.3860381226        1.8623709953       -2.1367944518
 H         -7.3624506929        1.3106224240        1.5281403705
 H         -6.2182711523        0.2410047105        2.3488565693
 H         -6.7776156444       -0.8031449660        0.2755534163
 H         -6.5158077151        0.6885222538       -0.6480881627
 O         -4.4379573219       -1.4508754330        0.6297609394
 C         -3.1440739755       -1.9445252546        0.6231618329
 O         -2.9952227209       -2.9917462237        1.2836718838
 O         -1.5979935110        0.6188646494       -1.4262606634
 C         -0.7624651435       -1.8463040970       -0.0466064982
 C          0.2347722187       -0.7649558806        0.2867469471
 C          0.2397525553       -0.2322434487        1.5726541360
 C          1.1165649736        0.7791449369        1.9166953176
 C          2.0080440796        1.2809412690        0.9851230887
 C          2.0114169684        0.7553949050       -0.3000127669
 C          1.1386524313       -0.2705918801       -0.6396966226
 H          1.1351908079       -0.6522963733       -1.6485690920
 N          2.9099579725        1.2639275295       -1.2507809662
 S          4.4928624582        1.5365632032       -0.7949634053
 O          4.5910110036        2.7803951014       -0.0723122953
 O          5.2588640267        1.4556698204       -2.0188736189
 C          4.8997831349        0.1767771805        0.2867374944
 C          5.2033970124        0.4133851280        1.6116264586
 C          5.4798033179       -0.6636669299        2.4388294456
 C          5.4440797398       -1.9522487824        1.9298197748
 C          5.1406719960       -2.1737999292        0.5949312945
 C          4.8646611060       -1.1008743774       -0.2363932916
 H          4.6331279606       -1.2371376576       -1.2805228863
 H          5.1157084302       -3.1773297362        0.2013685837
 H          5.6550434434       -2.7898274724        2.5758055503
 H          5.7184896078       -0.4943662582        3.4764616887
 H          5.2198354275        1.4308121628        1.9669285511
 H          2.8434140707        0.8318149703       -2.1597094799
 H          2.6843912921        2.0843285463        1.2280278776
 H          1.1034016920        1.1858112216        2.9166137849
 H         -0.4653217320       -0.6157235124        2.2980028314
 H         -0.7861643405       -2.5536823930        0.7980239218
 C         -0.3793763158       -2.6582278914       -1.2749448432
 C         -1.4040991916       -3.4808217514       -1.9959959571
 C         -0.7987526806       -2.2843946363       -2.6636540160
 H         -0.0996886538       -2.4504651804       -3.4709420701
 H         -1.4035771220       -1.4002299154       -2.7873636624
 H         -1.1237576262       -4.4637415508       -2.3435978020
 H         -2.4267754833       -3.4142832386       -1.6540275916
 H          0.6050786142       -3.1040856867       -1.1680218185
