  62
        -98.94113100
 C         -2.6509566677       -0.6116730761       -0.4579063921
 C         -3.1634497349        0.2441028374        0.5535430063
 C         -3.1399123587        1.6810865124        0.2694676960
 C         -2.6776868190        2.1154721703       -0.9164418272
 C         -2.5766884938        3.5491813147       -1.3594245149
 C         -1.2968335857        4.2467690422       -0.8777387486
 C         -1.2701718656        4.5952381464        0.6110415843
 H         -0.4325080521        5.2782822212        0.7646615880
 H         -2.1826720389        5.1306619444        0.8760837173
 C         -1.0918118283        3.3859557834        1.5402968458
 H         -0.7006638113        2.5385766069        0.9695610618
 H         -0.3412657302        3.6174389337        2.3002180772
 C         -2.3617693048        2.9567577845        2.2767412176
 H         -2.6672639698        3.7468647380        2.9665457567
 H         -2.1266125104        2.0660989513        2.8655174722
 C         -3.5474165915        2.6224592465        1.3618215546
 H         -3.9676148398        3.5355116341        0.9410886495
 H         -4.3132260631        2.1252157587        1.9620818477
 H         -1.1932542615        5.1722650393       -1.4490775935
 H         -0.4403156190        3.6094439599       -1.1132991384
 H         -2.5748492331        3.5395691880       -2.4514356175
 H         -3.4493546761        4.1050571408       -1.0158636299
 O         -2.2435058538        1.2649428164       -1.8802937008
 C         -2.1608767839       -0.1030254087       -1.6604458789
 O         -1.6468057904       -0.7210713709       -2.6164809088
 O         -3.6179620275       -0.1816770445        1.6489482252
 C         -2.5595390787       -2.0863215020       -0.0972427665
 C         -1.2131054322       -2.3368754027        0.5416122208
 C         -1.0983605353       -2.8665182960        1.8208020600
 C          0.1412993503       -2.9931830921        2.4248929532
 C          1.2886892176       -2.5773828279        1.7730574733
 C          1.1820285402       -2.0568517722        0.4917496177
 C         -0.0548137440       -1.9583929699       -0.1224418853
 H         -0.1222112037       -1.5401116967       -1.1167416269
 N          2.3476940865       -1.5556625835       -0.1533701513
 S          2.6519994927        0.0457002253        0.3206237415
 O          2.5499099056        0.1180538055        1.7558167891
 O          1.8138195411        0.9567259847       -0.4321421759
 C          4.3541372506        0.2263822370       -0.1759332328
 C          4.6568317633        0.8340937263       -1.3784764136
 C          5.9842134933        0.9245154029       -1.7681519690
 C          6.9792289925        0.4042610919       -0.9547385654
 C          6.6589275188       -0.2041673966        0.2499318478
 C          5.3343085340       -0.2964482076        0.6452459694
 H          5.0369110533       -0.7526125336        1.5747050799
 H          7.4355475628       -0.6060678660        0.8803910629
 H          8.0108250416        0.4750887089       -1.2613619013
 H          6.2354061537        1.3988740542       -2.7032376875
 H          3.8511333448        1.2304806144       -1.9759074944
 H          2.2159639276       -1.5356235144       -1.1579548054
 H          2.2551441761       -2.6281988079        2.2463157308
 H          0.2112319967       -3.3998867127        3.4222479350
 H         -1.9927487267       -3.1510011168        2.3554531484
 H         -3.3287528606       -2.2490673446        0.6699417683
 C         -2.8140617101       -3.0412964658       -1.2442764634
 C         -3.2603907128       -4.4385667301       -0.9380891115
 C         -4.2189171675       -3.4623545670       -1.5495973216
 H         -4.5024561648       -3.5901105626       -2.5832551518
 H         -5.0060248331       -3.0615689784       -0.9276883169
 H         -2.8846636773       -5.2430404232       -1.5511688913
 H         -3.4007274301       -4.7034015026        0.0988056604
 H         -2.1462678656       -2.8962881489       -2.0830185703
