  62
        -98.94228419
 C         -0.6464812661       -1.4400227508        0.5368766567
 C         -1.1244104635       -0.8611594686       -0.6601151541
 C         -2.1756116252        0.1670982539       -0.5257324165
 C         -2.5860751198        0.5160009952        0.7077129604
 C         -3.7091377004        1.4457958301        1.0823913280
 C         -5.0922368664        0.8025275537        0.8792351028
 C         -5.2582103728        0.0195225354       -0.4210462507
 H         -4.4980779362       -0.7625173492       -0.4684892580
 H         -6.2311009406       -0.4781077732       -0.3854980310
 C         -5.2078961213        0.8548368302       -1.6982334978
 H         -6.0095940101        1.5964013154       -1.6719509005
 H         -5.4079654166        0.1800788666       -2.5344557410
 C         -3.8876327050        1.5773394251       -1.9723642003
 H         -3.7914085996        2.4568967648       -1.3429011832
 H         -3.9212109825        1.9347722396       -3.0054820823
 C         -2.6435069627        0.7018568674       -1.8569881753
 H         -2.7621517168       -0.1737991953       -2.5047641715
 H         -1.7882732687        1.2518342450       -2.2675030675
 H         -5.2666350802        0.1097643232        1.7062695305
 H         -5.8485155911        1.5874032131        0.9329045467
 H         -3.5900217526        1.6754395459        2.1434618645
 H         -3.6314597158        2.3747836692        0.5273290708
 O         -2.0380532483       -0.0172273356        1.8384944502
 C         -1.0736935889       -1.0031997040        1.7886297730
 O         -0.6808104468       -1.4033938167        2.9051151829
 O         -0.7144531593       -1.2022675886       -1.8005571913
 C          0.3595188261       -2.5732209505        0.4807334690
 C          1.5765414855       -2.1862191961       -0.3227291934
 C          2.2143934304       -3.0582856361       -1.1959630681
 C          3.3456739622       -2.6556054554       -1.8839066646
 C          3.8665703688       -1.3872420840       -1.7115347125
 C          3.2376996372       -0.5077318454       -0.8359131581
 C          2.1046085764       -0.9131364175       -0.1502082417
 H          1.6241294784       -0.2331807629        0.5384575168
 N          3.7244714811        0.7922726427       -0.6699884275
 S          3.3077592260        1.7716587813        0.6039202325
 O          4.2281456733        2.8850899496        0.5017845179
 O          3.3181368573        1.0667855020        1.8649294036
 C          1.6723698796        2.3551318074        0.2167138101
 C          1.4105182087        2.7811603697       -1.0700009097
 C          0.1662978688        3.3179880480       -1.3565505865
 C         -0.7854655050        3.4291311327       -0.3550897379
 C         -0.5100595077        2.9915102243        0.9304005287
 C          0.7301814846        2.4463560506        1.2207649712
 H          0.9796216167        2.0839688067        2.2066330511
 H         -1.2495909000        3.0730981559        1.7105895999
 H         -1.7466275099        3.8636811355       -0.5784648746
 H         -0.0554499124        3.6547134700       -2.3566375522
 H          2.1775589189        2.6892316829       -1.8207741959
 H          4.6207166305        0.9994523389       -1.0815048853
 H          4.7474887198       -1.0729684317       -2.2496632638
 H          3.8300272137       -3.3409318513       -2.5628157193
 H          1.8253033410       -4.0527043126       -1.3403766621
 H          0.6828871199       -2.7449188698        1.5190375355
 C         -0.3209695594       -3.8281011604       -0.0311497930
 C          0.1065999125       -5.1793782323        0.4550281393
 C         -1.2021342322       -4.6019798140        0.9011250956
 H         -2.1154118253       -5.0291299165        0.5148230802
 H         -1.2848562182       -4.2399961532        1.9160369831
 H          0.0887110255       -6.0073554447       -0.2376826508
 H          0.9110166819       -5.2212435180        1.1739585177
 H         -0.6450623684       -3.7314624474       -1.0612866786
