  62
        -98.93365205
 C          2.0543537295        1.2770213759        0.0228352163
 C          2.3885263076        0.0902398297       -0.6744481120
 C          3.8148133314       -0.2903807717       -0.6665153172
 C          4.7071839246        0.4745174493       -0.0171821784
 C          6.2014587434        0.2971016170        0.0824934131
 C          6.7297080000       -1.1199533016        0.3481237411
 C          5.8133732136       -2.0078238920        1.2028494471
 H          6.3999797492       -2.4458809590        2.0125780323
 H          5.0265502953       -1.4055325663        1.6603181724
 C          5.1816970069       -3.1544168732        0.4092952331
 H          5.9431279179       -3.5903285223       -0.2413427706
 H          4.8651166243       -3.9326416789        1.1079739184
 C          3.9618687778       -2.7790172984       -0.4314211957
 H          3.1122412753       -2.5609824803        0.2219220251
 H          3.6857982023       -3.6496542792       -1.0313870172
 C          4.1505508126       -1.5747127972       -1.3681404575
 H          5.1537580796       -1.5545585914       -1.7871942021
 H          3.4319382369       -1.6714891536       -2.1865772063
 H          6.9229401347       -1.6206207848       -0.5997256681
 H          7.6944337639       -1.0082509124        0.8459079397
 H          6.6521385672        0.6797544799       -0.8378782995
 H          6.5119586904        0.9610660599        0.8928058278
 O          4.3395492747        1.6026634694        0.6537170440
 C          3.0212466261        2.0179588252        0.7074045070
 O          2.8389472875        3.0466523085        1.3886174185
 H         -1.1757245246        0.3825238688       -1.4020169642
 C         -1.1537057764        0.0477210300       -0.3768156669
 C         -0.2899526195        0.6502420373        0.5239743042
 C         -0.2571153979        0.1784828114        1.8326392459
 C         -1.0628049710       -0.8736289817        2.2266464567
 C         -1.9148626470       -1.4810731512        1.3214064427
 C         -1.9509599435       -1.0206791978        0.0121494782
 N         -2.8079618076       -1.6416959202       -0.9164356048
 S         -4.4315913940       -1.7419128846       -0.5279309025
 O         -4.6231394057       -2.7380443256        0.4956307644
 O         -5.1138796723       -1.9739332553       -1.7807718530
 C         -4.8306863562       -0.1250878015        0.1094454273
 C         -5.0285767051        0.9006948345       -0.7937644016
 C         -5.2617256973        2.1797570313       -0.3157707786
 C         -5.2812452347        2.4118053339        1.0513197590
 C         -5.0805040842        1.3713970916        1.9450041124
 C         -4.8514695075        0.0887351034        1.4726933761
 H         -4.6965091969       -0.7472406452        2.1343378008
 H         -5.0979368312        1.5549597883        3.0072384991
 H         -5.4559906762        3.4095917426        1.4219673470
 H         -5.4223396537        2.9905826309       -1.0082115635
 H         -5.0121846526        0.6777531375       -1.8486433308
 H         -2.6859536478       -1.3059249289       -1.8606197964
 H         -2.5438539077       -2.3093751719        1.6054486267
 H         -1.0231614453       -1.2292154953        3.2452731172
 H          0.4186949287        0.6437532699        2.5376480109
 C          0.6248341653        1.7833896343        0.1325521921
 H          0.6472345553        2.5015219368        0.9678660524
 C          0.1313944068        2.5544185203       -1.0828551019
 C          1.0626904774        3.4432811780       -1.8505181380
 C          0.5153813655        2.2030202541       -2.4875783443
 H         -0.2293275939        2.3145392967       -3.2627526426
 H          1.1761286171        1.3640158016       -2.6364867173
 H          0.6992152452        4.4019108244       -2.1884889312
 H          2.1013285671        3.4503203624       -1.5526827025
 H         -0.8776426793        2.9277749282       -0.9347073894
 O          1.5588583445       -0.6236700949       -1.2930800399
