  62
        -98.93604027
 C          2.4056548981        1.0661456058        0.0386329530
 C          2.2923348876       -0.2587239642       -0.4500255044
 C          3.2157808415       -1.2379275630        0.1425837952
 C          4.0567276165       -0.8669338075        1.1237671040
 C          5.0316397323       -1.7582075365        1.8439582725
 C          6.3662371625       -1.9441666529        1.1089821679
 C          6.3049163517       -2.8287904671       -0.1368778260
 H          7.3349839362       -3.0496754447       -0.4235524144
 H          5.8268219615       -3.7759897962        0.1145785119
 C          5.5868677353       -2.1888752455       -1.3332895840
 H          5.5141669875       -1.1096107491       -1.1795497922
 H          6.1788079907       -2.3432371598       -2.2383398360
 C          4.1893630630       -2.7453229049       -1.6060400010
 H          3.7613039945       -2.1978971045       -2.4498070670
 H          4.2635065372       -3.7972503626       -1.8905597837
 C          3.2196167602       -2.6265511486       -0.4229579907
 H          3.4777422557       -3.3510239679        0.3489462048
 H          2.2110177051       -2.8418660261       -0.7839378394
 H          6.7560294378       -0.9600422091        0.8386014988
 H          7.0666850305       -2.3959889026        1.8150660581
 H          4.5753967574       -2.7318551395        2.0245377353
 H          5.2321189637       -1.2835330100        2.8068347973
 O          4.1015777761        0.4052780400        1.6009613496
 C          3.3052652533        1.3973664346        1.0573726551
 O          3.4853318368        2.5254570518        1.5580162488
 O          1.4703431570       -0.6309145825       -1.3278544546
 C          1.5790272075        2.2260607436       -0.4948729546
 C          0.2324040934        2.2898583709        0.1780146994
 C         -0.1954576629        3.4461221317        0.8183625486
 C         -1.4409479722        3.4970138714        1.4207530970
 C         -2.2840861107        2.4005717871        1.3949629671
 C         -1.8650368618        1.2404345662        0.7564283871
 C         -0.6147815746        1.1900444597        0.1579720917
 H         -0.2915983404        0.2882828812       -0.3423055733
 N         -2.7150643958        0.1087862184        0.7220558605
 S         -4.1626862254        0.3344035275       -0.1262557983
 O         -3.8841834712        0.6263340129       -1.5165333059
 O         -4.9565723337        1.3098947881        0.5756996844
 C         -4.9023705387       -1.2778138615        0.0325521470
 C         -4.7393993943       -2.2023266794       -0.9809195658
 C         -5.2976804388       -3.4625426705       -0.8340844471
 C         -6.0013303892       -3.7754754705        0.3190922926
 C         -6.1553777546       -2.8364181064        1.3281941067
 C         -5.6007747499       -1.5745010613        1.1870879069
 H         -5.7016227203       -0.8104334419        1.9398509809
 H         -6.7052622194       -3.0832632784        2.2220174131
 H         -6.4346571985       -4.7568838927        0.4303151397
 H         -5.1812631001       -4.1935519269       -1.6180311249
 H         -4.1918759802       -1.9137622082       -1.8641800365
 H         -2.2323232044       -0.6778474788        0.3037483526
 H         -3.2627900692        2.4352710106        1.8441666989
 H         -1.7599816053        4.4016748361        1.9160570469
 H          0.4590162336        4.3053302707        0.8493992560
 H          2.1367400390        3.1295167515       -0.2025707415
 C          1.4868154103        2.2268005445       -2.0166368800
 C          0.2172324913        2.0336968080       -2.7859757329
 C          0.8534787578        3.3877920086       -2.7249467708
 H          1.3302188016        3.7810991729       -3.6099504469
 H          0.3703737269        4.1352856424       -2.1132758814
 H          0.2748913127        1.4734826082       -3.7071472025
 H         -0.7048998128        1.8774356411       -2.2470878974
 H          2.3820942449        1.8157019746       -2.4726615560
