  62
        -98.93561515
 C         -2.4898013228       -1.3415979046        0.2571058069
 C         -2.6914764616       -0.4164029779       -0.7949261710
 C         -3.7862103181        0.5515221392       -0.6078076207
 C         -4.5243964780        0.5098261486        0.5153525104
 C         -5.6126159239        1.4769973623        0.8849802486
 C         -4.9952537034        2.7956436302        1.3931418293
 C         -5.2693343680        4.0057711540        0.4998578369
 H         -6.3003044979        4.3323116209        0.6511530232
 H         -4.6153779025        4.8137992109        0.8345092973
 C         -5.0636352805        3.7876000310       -1.0023053077
 H         -5.9314978109        3.2761896626       -1.4213418215
 H         -5.0318217161        4.7759643165       -1.4657888385
 C         -3.7993168910        3.0158723930       -1.4019435284
 H         -3.0353353927        3.1017320061       -0.6288023874
 H         -3.3914413059        3.4768299164       -2.3040156513
 C         -4.0327242875        1.5279056810       -1.7251683560
 H         -5.0469086728        1.3923052575       -2.1107704562
 H         -3.3390136034        1.2300069661       -2.5169074340
 H         -5.3768586532        3.0147647439        2.3914206044
 H         -3.9173309634        2.6523708813        1.4939418253
 H         -6.2512543683        1.6595727613        0.0236306491
 H         -6.2085105748        1.0097151862        1.6691677948
 O         -4.3064114497       -0.3962648387        1.5023411337
 C         -3.2975506597       -1.3355954084        1.4000356628
 O         -3.2213438211       -2.1082702153        2.3756519352
 H          0.0307253410       -0.5662986925       -1.1141589826
 C          0.5548046927       -0.9234927464       -0.2399193468
 C         -0.0529788221       -1.8664251019        0.5765845235
 C          0.6318955944       -2.3099329903        1.7019178876
 C          1.8914692361       -1.8195361022        1.9987570353
 C          2.4914509998       -0.8758035539        1.1843479829
 C          1.8146037803       -0.4242402168        0.0589978417
 N          2.4022173294        0.5528309939       -0.7640741925
 S          3.9652629603        0.2870044908       -1.3149607700
 O          4.0840498997        1.0744449893       -2.5226678657
 O          4.2521109635       -1.1237721694       -1.4374896515
 C          4.9933160600        1.0094906309       -0.0528823040
 C          4.7710329469        2.3279710822        0.2933288052
 C          5.5720880115        2.9092253785        1.2631410968
 C          6.5785130286        2.1678381552        1.8643214010
 C          6.7910835227        0.8462421067        1.5033824927
 C          5.9922096889        0.2583433504        0.5348469685
 H          6.1165958129       -0.7674627313        0.2264647240
 H          7.5739976973        0.2716886065        1.9717397061
 H          7.2007641769        2.6230615698        2.6185571735
 H          5.4095343930        3.9366384549        1.5467486193
 H          3.9811196980        2.8697572626       -0.1996838100
 H          1.8018661499        0.8456759099       -1.5220651468
 H          3.4717896850       -0.4896384464        1.4115487463
 H          2.4114193838       -2.1742164310        2.8755534986
 H          0.1651152524       -3.0376713646        2.3498503776
 C         -1.4164677259       -2.4199508551        0.2349241645
 H         -1.6964996908       -3.1256049294        1.0283167706
 C         -1.3688484912       -3.1779602911       -1.0787732052
 C         -0.7652495920       -4.5484337258       -1.1043335364
 C         -2.2455171110       -4.3775443069       -1.2662524085
 H         -2.6839750789       -4.5481485305       -2.2380387978
 H         -2.8847421326       -4.6622446890       -0.4429634277
 H         -0.1817147194       -4.8375119053       -1.9650654511
 H         -0.4009590829       -4.9520934353       -0.1717349126
 H         -1.2084051490       -2.5415115150       -1.9389882996
 O         -2.0055210752       -0.3766757101       -1.8532291078
