  62
        -98.93803286
 C         -1.0551331818       -1.7532500806        0.4703422753
 C         -1.5919987869       -0.7431018835        1.3074448351
 C         -2.6965506971        0.0490245847        0.7552179740
 C         -3.1448360270       -0.2134554931       -0.4847513065
 C         -4.2664812390        0.4910003998       -1.1989666492
 C         -3.9929661425        1.9644720490       -1.5612480629
 C         -4.5320134175        2.9731052203       -0.5388426040
 H         -4.9551913976        3.8243691747       -1.0760611614
 H         -5.3521560489        2.5105212387        0.0122175713
 C         -3.5048662163        3.5343417164        0.4491905638
 H         -2.9071215327        4.2980991453       -0.0541109021
 H         -4.0514150172        4.0219971377        1.2597970824
 C         -2.5288122781        2.5203615333        1.0466731451
 H         -1.9945183748        3.0077748197        1.8658206994
 H         -1.7753903287        2.2608877886        0.2967857021
 C         -3.1818077169        1.2202011893        1.5587450202
 H         -2.8851351769        1.0374722581        2.5937322783
 H         -4.2675322200        1.2929700195        1.5180623654
 H         -2.9216553176        2.1066674507       -1.7119571479
 H         -4.4809650918        2.1539998237       -2.5189060954
 H         -4.4339200246       -0.0774136711       -2.1160745005
 H         -5.1723378496        0.4256852146       -0.5920351517
 O         -2.6185643615       -1.2039571180       -1.2523317920
 C         -1.5210665125       -1.9443784970       -0.8319956769
 O         -1.0825787328       -2.7229713216       -1.6991546402
 O         -1.1481493942       -0.4971132785        2.4617364594
 C          0.2032527009       -2.4562191322        0.9500113539
 C          1.3124654354       -2.2133353860       -0.0462149829
 C          2.2212484840       -3.1733919402       -0.4690338229
 C          3.2060345367       -2.8415892157       -1.3854809796
 C          3.3102323021       -1.5604106733       -1.8955426907
 C          2.4009110873       -0.5924035108       -1.4803624862
 C          1.4310025109       -0.9256160986       -0.5526108503
 H          0.7154010373       -0.1771884868       -0.2538731250
 N          2.4338715229        0.7081567760       -1.9930859475
 S          1.6971065303        1.9971284218       -1.2413226887
 O          0.2617097861        1.8536945424       -1.2554101647
 O          2.2204819766        3.1495665269       -1.9442184423
 C          2.3257250035        1.9946816095        0.4280257364
 C          3.6780058723        2.2261157390        0.5942844103
 C          4.2116786787        2.2089381850        1.8719253202
 C          3.3886872811        1.9570303234        2.9597682536
 C          2.0333874704        1.7329791261        2.7779667810
 C          1.4937097385        1.7535969565        1.5012847965
 H          0.4421292688        1.5755969685        1.3384247263
 H          1.3852527806        1.5298361192        3.6156323468
 H          3.8038378092        1.9370827446        3.9550383613
 H          5.2648724280        2.3881563962        2.0163329107
 H          4.2829949735        2.4289994754       -0.2742501742
 H          3.2353060671        0.9589770359       -2.5493354350
 H          4.0709621602       -1.3137384940       -2.6198219502
 H          3.9028766974       -3.5981825936       -1.7130822676
 H          2.1488005246       -4.1838597385       -0.1016964417
 H          0.4706649634       -1.9097368869        1.8715815525
 C          0.0403275119       -3.9127244658        1.3554365892
 C         -1.3110879868       -4.4962928331        1.6376291902
 C         -0.5342919903       -4.9506467202        0.4402416056
 H         -0.1034764068       -5.9413106241        0.4569632430
 H         -0.8604530267       -4.6268088558       -0.5349454422
 H         -1.4162759004       -5.1698795294        2.4750875967
 H         -2.1721868048       -3.8644546298        1.4722071854
 H          0.8422170421       -4.2412663923        2.0097030174
