  62
        -98.93985543
 C         -2.5805995106       -0.0751048992       -0.4987401595
 C         -2.2281301208       -0.7057054289        0.7173935407
 C         -1.8104996715       -2.1149282592        0.6241353712
 C         -1.7297909620       -2.7006620797       -0.5828543785
 C         -1.3382911227       -4.1184950100       -0.9177667080
 C         -0.1516834730       -4.7252307703       -0.1580010879
 C          0.9561629876       -3.7335257808        0.2285575016
 H          1.9185689373       -4.1297132814       -0.1024659184
 H          0.8135196680       -2.7753703109       -0.2767184388
 C          1.0399180779       -3.4989212902        1.7384898615
 H          0.9422058574       -4.4599495700        2.2499928418
 H          2.0270291481       -3.0939378006        1.9745722712
 C          0.0152604684       -2.5169250595        2.3049705912
 H          0.2718329789       -1.5035676797        1.9849389008
 H          0.0982257986       -2.5364821891        3.3950073612
 C         -1.4486427117       -2.7819667389        1.9201219515
 H         -1.6620413223       -3.8485920088        1.8935874219
 H         -2.0808930814       -2.3179274882        2.6825741413
 H         -0.5118770431       -5.2188138598        0.7437665623
 H          0.2660592266       -5.5041565508       -0.7982195277
 H         -2.2164961231       -4.7561957795       -0.7786770377
 H         -1.1174668929       -4.1031097406       -1.9878545181
 O         -2.0529904318       -2.0450789600       -1.7341304488
 C         -2.4762155111       -0.7290715698       -1.7238706792
 O         -2.7315646710       -0.2599287801       -2.8535353194
 H         -0.3931891101        1.0470865795       -0.9885275502
 C         -0.5594897196        1.8952869298       -0.3407627605
 C         -1.8560210294        2.2331744706        0.0243148695
 C         -2.0465711487        3.3375468710        0.8449535191
 C         -0.9600446383        4.0619382306        1.3046979787
 C          0.3309624915        3.6935969098        0.9734188987
 C          0.5313399608        2.5973628394        0.1426050591
 N          1.8296271706        2.1859535186       -0.2307826209
 S          2.1650792798        0.5387387585       -0.0113342503
 O          1.5202984492       -0.2288990216       -1.0460304699
 O          1.8710504297        0.1679645792        1.3543032899
 C          3.9285196497        0.5406078675       -0.2761501605
 C          4.4002428396        0.5769338268       -1.5743568805
 C          5.7687639296        0.6170983860       -1.7888446107
 C          6.6377099297        0.6212246059       -0.7075635608
 C          6.1494870698        0.5818581767        0.5896844893
 C          4.7815755298        0.5427280275        0.8109455294
 H          4.3555180099        0.5031286781        1.8006401595
 H          6.8271743499        0.5815939467        1.4280473492
 H          7.7022291597        0.6524743753       -0.8777654709
 H          6.1516481095        0.6448199754       -2.7962380708
 H          3.6864805895        0.5635746668       -2.3816558304
 H          2.5397200109        2.7285283784        0.2462169688
 H          1.1770471818        4.2462014396        1.3538576884
 H         -1.1209871178        4.9159519310        1.9451448684
 H         -3.0448017285        3.6254120916        1.1320066891
 C         -2.9876588399        1.3868638510       -0.5100300000
 H         -3.1371435599        1.6503650106       -1.5683361901
 C         -4.2925342397        1.5877672619        0.2323731701
 C         -5.2422385692        2.6690880923       -0.1854188902
 C         -5.5752034499        1.2336411823       -0.4562748696
 H         -6.3578564601        0.7648444430        0.1208496306
 H         -5.5059303202        0.8728164619       -1.4724829895
 H         -4.9584387689        3.2878754218       -1.0233134105
 H         -5.8022378388        3.1867791228        0.5787348696
 H         -4.2086994497        1.3541829523        1.2874379302
 O         -2.2768093204       -0.1266243785        1.8350004405
