  62
        -98.94349991
 C          1.8126255620       -0.5451909644       -0.3226540991
 C          2.9582259862       -0.6432585240       -1.1469876425
 C          4.2442060400       -0.7634662095       -0.4475116835
 C          4.2606160116       -0.7866668030        0.8980656886
 C          5.5031440968       -0.8463124836        1.7377699310
 C          6.0049528491        0.5617196985        2.0875953120
 C          6.1061702015        1.4986250795        0.8838733420
 H          5.1028182935        1.6914139678        0.4970352110
 H          6.4989455630        2.4515692540        1.2451509839
 C          6.9956923023        0.9775170893       -0.2535517263
 H          7.6374536020        1.7914671909       -0.5974325328
 H          7.6476869296        0.1864902065        0.1186113840
 C          6.2291035836        0.4683611950       -1.4756231341
 H          6.9430480828        0.3309700348       -2.2921693650
 H          5.5079018977        1.2242382135       -1.7970790130
 C          5.4848201198       -0.8600752925       -1.2903563917
 H          5.1506952409       -1.1933741967       -2.2773442459
 H          6.1675499897       -1.6109025401       -0.8875600323
 H          5.3151604240        1.0055599449        2.8091432208
 H          6.9831086937        0.4713608171        2.5634254534
 H          5.2687213165       -1.3781577285        2.6613029062
 H          6.2736852188       -1.3947751519        1.1994973961
 O          3.1370809321       -0.7091357472        1.6557891512
 C          1.8863437470       -0.5769730881        1.0701079145
 O          0.9436922524       -0.5027301873        1.8797091469
 O          2.9078029951       -0.6256381726       -2.4070042698
 C          0.4491905484       -0.4042155348       -0.9725886256
 C         -0.2356620324        0.8583276626       -0.5110075606
 C          0.4983390182        2.0392074343       -0.4292152866
 C         -0.0939123064        3.2132871456       -0.0085767693
 C         -1.4380224727        3.2417196565        0.3198323537
 C         -2.1847095254        2.0747905628        0.2253013615
 C         -1.5822117958        0.8924837120       -0.1843041234
 H         -2.1799239866       -0.0011039433       -0.2497133430
 N         -3.5465197533        2.0667524787        0.5591149571
 S         -4.6300845500        1.1866350169       -0.3612210070
 O         -4.2415110199        1.1482907782       -1.7516432236
 O         -5.9171989198        1.7876875309       -0.0808802102
 C         -4.6051391609       -0.4531485531        0.3310896872
 C         -4.4721898838       -0.6078725945        1.6966136171
 C         -4.5017501290       -1.8864079437        2.2302357412
 C         -4.6713755154       -2.9816494984        1.3968324357
 C         -4.8098859120       -2.8089543288        0.0284406882
 C         -4.7766418204       -1.5329411640       -0.5123425081
 H         -4.8683400545       -1.3536613458       -1.5718567832
 H         -4.9417670577       -3.6617808583       -0.6186348243
 H         -4.6941704572       -3.9753515486        1.8157927970
 H         -4.3903524134       -2.0247164037        3.2936954376
 H         -4.3378136543        0.2631235723        2.3159711688
 H         -3.9257195859        2.9623648210        0.8294438948
 H         -1.9037561440        4.1587459276        0.6476342669
 H          0.4925223663        4.1174997509        0.0582843681
 H          1.5467907570        2.0218259849       -0.6946280295
 H          0.6465530120       -0.3074290126       -2.0513327867
 C         -0.3710517032       -1.6562319459       -0.7406877238
 C         -1.3905148523       -2.0949057883       -1.7476453966
 C         -0.1101374246       -2.8582581905       -1.5963648516
 H         -0.1425239360       -3.8349202344       -1.1377403427
 H          0.6398890706       -2.7623193882       -2.3679094017
 H         -2.3018880180       -2.5486105994       -1.3886636548
 H         -1.5211938577       -1.4826751769       -2.6275322380
 H         -0.5831454666       -1.8237711840        0.3095706418
