  62
        -98.94009410
 C         -1.9549160626       -1.4118141656       -0.0505826639
 C         -1.7585723708       -0.0566147155       -0.4131876888
 C         -2.9821691974        0.7206168055       -0.6696726396
 C         -4.1834365097        0.1275937394       -0.5535171749
 C         -5.5038371021        0.8162721310       -0.7383273272
 C         -6.0309501676        1.3717958130        0.5920796326
 C         -4.9990285163        2.1840713943        1.3748281441
 H         -4.1918686492        1.5217082856        1.6964374727
 H         -5.4912620640        2.5504280743        2.2784109490
 C         -4.4029688651        3.3686158287        0.6014199785
 H         -4.3819894982        4.2403702366        1.2589259908
 H         -5.0435225506        3.6177409201       -0.2454570033
 C         -2.9717412525        3.1492980671        0.1073961128
 H         -2.3455370037        2.8085341604        0.9362752569
 H         -2.5762306379        4.1130628166       -0.2244889682
 C         -2.8111605477        2.1628183892       -1.0561336083
 H         -1.7864509225        2.2562867432       -1.4269426417
 H         -3.4953455260        2.4312243706       -1.8635950951
 H         -6.3505279661        0.5333333925        1.2154276704
 H         -6.9044526666        1.9928484011        0.3853595644
 H         -5.3904624174        1.6219696943       -1.4610161452
 H         -6.2195685563        0.0897158031       -1.1268922244
 O         -4.3329537849       -1.1742914704       -0.1983620386
 C         -3.2308034084       -1.9653835575        0.0834022404
 O         -3.5116626181       -3.1264290330        0.4416204764
 H          1.9527910762       -2.0329912029       -0.0449290917
 C          1.5717882752       -1.5548654494        0.8440060691
 C          0.2180455827       -1.6060437780        1.1374222053
 C         -0.2321030485       -0.9670976333        2.2905750959
 C          0.6390986329       -0.2711618699        3.1053145500
 C          1.9890752699       -0.2146503610        2.8033422328
 C          2.4520135153       -0.8643811732        1.6691498596
 N          3.8325425340       -0.8222365835        1.3735863984
 S          4.4815220560        0.6413874036        0.8797025952
 O          5.9114394750        0.4358378222        0.8190660270
 O          4.0205636177        1.6784602448        1.7656711043
 C          3.8531060591        0.8904286808       -0.7716562215
 C          4.7001998904        0.6985681558       -1.8463481386
 C          4.1978021471        0.8359962208       -3.1298823154
 C          2.8595445646        1.1493971787       -3.3169110162
 C          2.0232742533        1.3342877123       -2.2274418464
 C          2.5199986448        1.2054252485       -0.9402613858
 H          1.8749621153        1.3328124296       -0.0862457166
 H          0.9768799650        1.5594195247       -2.3565584280
 H          2.4649479758        1.2481419447       -4.3161364311
 H          4.8471128017        0.6937859029       -3.9789140717
 H          5.7319328937        0.4522487629       -1.6531713009
 H          4.1239223936       -1.5409786324        0.7250457611
 H          2.6820308406        0.3363238558        3.4176953342
 H          0.2669062365        0.2300523327        3.9865345062
 H         -1.2864130592       -1.0096821490        2.5312322385
 C         -0.7860387239       -2.3274881835        0.2706100515
 H         -1.2223357863       -3.1411393801        0.8738506939
 C         -0.1608840932       -2.9823904145       -0.9540239323
 C         -0.9095940815       -3.0967763917       -2.2474822670
 C          0.2702027252       -2.1800030845       -2.1445599051
 H          1.1818701113       -2.4591636025       -2.6529765615
 H          0.0960234566       -1.1165823587       -2.1117755910
 H         -1.8967857745       -2.6608941521       -2.2985250290
 H         -0.8079480172       -4.0095564511       -2.8153611959
 H          0.4580568699       -3.8340087019       -0.6878368960
 O         -0.6314881084        0.4883372379       -0.5206841725
