  62
        -98.93908913
 C         -2.3504107099       -0.6629465181        0.1214220045
 C         -2.6065292179        0.7330489090        0.1771534972
 C         -3.8658233242        1.1950181362       -0.4190068219
 C         -4.6889125278        0.2957122145       -0.9877239017
 C         -6.0277336618        0.6130088362       -1.5868063575
 C         -7.1478764781        0.4806004134       -0.5454216941
 C         -6.8576405952        1.2048675688        0.7691093798
 H         -7.7275427008        1.0679770654        1.4151024053
 H         -6.0115165940        0.7217596223        1.2631919820
 C         -6.5651016669        2.7040926344        0.6167476631
 H         -6.9209802436        3.0548108760       -0.3525880960
 H         -7.1204961292        3.2489720777        1.3829886884
 C         -5.0920985455        3.0831519163        0.7818058018
 H         -4.7040301747        2.6538796655        1.7091388315
 H         -5.0287241095        4.1707239244        0.8742904735
 C         -4.1630543695        2.6672397311       -0.3658953783
 H         -4.5756294593        3.0110296421       -1.3166896268
 H         -3.1996248043        3.1616920007       -0.2102411013
 H         -8.0708822120        0.8682198461       -0.9802545871
 H         -7.2933852648       -0.5796577544       -0.3266165161
 H         -6.0082342061        1.6240399026       -1.9889029069
 H         -6.2151957089       -0.0894523898       -2.4004867932
 O         -4.4072294718       -1.0286633099       -1.0366434006
 C         -3.2431485966       -1.5466748986       -0.4861031559
 O         -3.1483889196       -2.7830450337       -0.6134389973
 H          1.2808264261        0.2018326367        0.5096605748
 C          1.1798139081       -0.5725462191       -0.2371288712
 C          0.0308370599       -1.3482661696       -0.2838336660
 C         -0.0802500457       -2.3232400731       -1.2702201867
 C          0.9424962581       -2.5144095434       -2.1808325096
 C          2.0988550454       -1.7570784335       -2.1150699285
 C          2.2159653663       -0.7756717042       -1.1380509687
 N          3.3671348695        0.0233115410       -1.0557067367
 S          3.9031039810        0.4938095097        0.4750789294
 O          3.7931313732       -0.6131082948        1.3981424587
 O          3.2284595867        1.7102036925        0.8529683886
 C          5.6175133272        0.8391865691        0.1268023052
 C          5.9567160319        2.0736206558       -0.3941887482
 C          7.2850769576        2.3318927541       -0.6931945777
 C          8.2460928949        1.3570342862       -0.4692207279
 C          7.8906256645        0.1235017877        0.0554778531
 C          6.5638674451       -0.1417584602        0.3562047627
 H          6.2421279400       -1.0820814476        0.7742582197
 H          8.6403708443       -0.6308036762        0.2318695086
 H          9.2791926939        1.5612248051       -0.7021058231
 H          7.5655865959        3.2908095416       -1.0981733631
 H          5.1766373520        2.8023058100       -0.5420267952
 H          4.1241462343       -0.3136776740       -1.6345852775
 H          2.9015572638       -1.9186595072       -2.8185637831
 H          0.8436351915       -3.2724754167       -2.9432205226
 H         -0.9769249613       -2.9214635935       -1.3179972586
 C         -1.0514042417       -1.1377239107        0.7487941364
 H         -0.7258369452       -0.3096517858        1.3942320097
 C         -1.2005496100       -2.3793024452        1.6078299333
 C         -0.1072030191       -2.7152843251        2.5759410868
 C         -1.4335393821       -2.2322430166        3.0798187308
 H         -2.0870892650       -2.9376137380        3.5708380144
 H         -1.4920585814       -1.2301581140        3.4798719672
 H          0.7379969658       -2.0437080275        2.6289799923
 H          0.1500083482       -3.7532891622        2.7210977396
 H         -1.6962080935       -3.1973553090        1.1019456777
 O         -1.8154169902        1.5578602012        0.7106933273
