  62
        -98.93588424
 C         -2.4982088089       -1.0213783518        0.5822234244
 C         -2.5868682131        0.2656206196        1.1732897654
 C         -3.8501490525        0.9857742438        0.9836604014
 C         -4.8537988139        0.3991081338        0.3069402996
 C         -6.2153499603        0.9868924793        0.0522285989
 C         -6.2742704216        1.9223136639       -1.1630512983
 C         -5.5965105214        3.2797013166       -0.9722213392
 H         -5.8988836125        3.9096984435       -1.8110177218
 H         -5.9717593102        3.7474405714       -0.0615578377
 C         -4.0629797701        3.2213542923       -0.9281330405
 H         -3.6492664155        4.0071805186       -1.5641587615
 H         -3.7208903758        2.2674538558       -1.3365654711
 C         -3.4603107246        3.4044714748        0.4650812021
 H         -2.3740898204        3.3062208848        0.3848980533
 H         -3.6808682704        4.4097099274        0.8313806252
 C         -3.9507583274        2.3875740036        1.5041538939
 H         -3.3090795924        2.4613276580        2.3857834296
 H         -4.9762146404        2.6127685489        1.7969085157
 H         -5.8295500309        1.4105047845       -2.0194485810
 H         -7.3287776143        2.0956563178       -1.3894092414
 H         -6.5552027497        1.5201247724        0.9404525165
 H         -6.8876051740        0.1453929475       -0.1279981588
 O         -4.7429980906       -0.8464186642       -0.2209845445
 C         -3.5628724890       -1.5782496067       -0.1286282783
 O         -3.6177800417       -2.6781498208       -0.7066777018
 O         -1.6516760224        0.7840830435        1.8429599705
 C         -1.1841098637       -1.7594052745        0.7607895611
 C         -0.2368467877       -1.4713078978       -0.3766673819
 C         -0.6446837629       -1.5808452903       -1.7027313803
 C          0.2407455060       -1.3134814462       -2.7305463614
 C          1.5424979787       -0.9316447435       -2.4583141282
 C          1.9629707414       -0.8261398872       -1.1372925770
 C          1.0709758874       -1.0945415177       -0.1075482651
 H          1.4023390376       -0.9864366678        0.9143068484
 N          3.2947583760       -0.4901408295       -0.8416678771
 S          3.6330260353        0.4554161641        0.5162760545
 O          3.5424594198       -0.3737432525        1.6914116627
 O          2.8252265659        1.6541390594        0.5034555551
 C          5.3411343807        0.8528575943        0.1949581392
 C          6.2977295253       -0.1173169325        0.4283273753
 C          7.6251185055        0.1720580953        0.1557986281
 C          7.9723310541        1.4193941277       -0.3421433822
 C          7.0017359346        2.3834834709       -0.5686545711
 C          5.6716058320        2.0999096756       -0.3000278714
 H          4.8835302398        2.8197247724       -0.4532948920
 H          7.2748999262        3.3533290222       -0.9521996459
 H          9.0064544173        1.6424348436       -0.5521693047
 H          8.3829707360       -0.5738671088        0.3330120901
 H          5.9819052495       -1.0680844439        0.8247410602
 H          3.7959427419       -0.1493948097       -1.6513787542
 H          2.2300883303       -0.7201136644       -3.2631004160
 H         -0.0879885114       -1.3993583409       -3.7554151287
 H         -1.6590786178       -1.8826437119       -1.9160628736
 H         -0.7390514272       -1.3214843623        1.6696892513
 C         -1.3566776499       -3.2506360114        1.0168388668
 C         -0.9553500196       -4.3100695665        0.0393778861
 C         -0.1529993557       -4.1045939770        1.2868190289
 H         -0.2096058068       -4.8447231540        2.0705782339
 H          0.8160073527       -3.6371249177        1.1894022274
 H         -1.5872886936       -5.1813913594       -0.0372655775
 H         -0.5263340044       -4.0007375398       -0.9003552792
 H         -2.2420117782       -3.4567447602        1.6099828836
