  62
        -98.92897078
 C         -2.1560383111        0.5586263352       -0.1826525866
 C         -3.4397791686        1.0505966294       -0.5234434434
 C         -4.6007338052        0.2305521744       -0.1307260754
 C         -4.3855335454       -0.9531230852        0.4699997919
 C         -5.3921578150       -1.9587852177        0.9690348739
 C         -6.5819812474       -2.2610909958        0.0450679683
 C         -7.9107410387       -1.7089295339        0.5640736996
 H         -8.7249361724       -2.2951922439        0.1323676414
 H         -7.9462964188       -1.8498792251        1.6463348553
 C         -8.1762355962       -0.2404220141        0.2372085428
 H         -8.3892374108       -0.1404014009       -0.8292796880
 H         -9.0765900157        0.0606342352        0.7778979723
 C         -7.0444196105        0.7250299042        0.5950256083
 H         -6.6069324453        0.4614559065        1.5573632588
 H         -7.4778429716        1.7214129680        0.7048154255
 C         -5.9459630122        0.8094991321       -0.4755110267
 H         -6.2967674983        0.3552420544       -1.4066491596
 H         -5.7427520323        1.8585008748       -0.7125095542
 H         -6.6754554054       -3.3455597643       -0.0317479468
 H         -6.3791439115       -1.8835939048       -0.9559236728
 H         -5.7554706362       -1.6285132517        1.9454475920
 H         -4.8163941103       -2.8704461618        1.1439617591
 O         -3.1296273400       -1.4105489836        0.7372137809
 C         -1.9885578557       -0.6846911414        0.4274771417
 O         -0.9305439140       -1.2608664327        0.7389476963
 O         -3.6140155221        2.1391164904       -1.1352005881
 C         -0.9549417253        1.4058919380       -0.5619648238
 C          0.0994143758        0.5598156859       -1.2280470784
 C         -0.1667556043        0.0237177306       -2.4855025975
 C          0.7676474917       -0.7632381193       -3.1298229748
 C          1.9920022332       -1.0217398966       -2.5392752882
 C          2.2627605109       -0.5009535934       -1.2795521570
 C          1.3204646630        0.2870502813       -0.6336935136
 H          1.5482070593        0.6627325308        0.3497418709
 N          3.4811737500       -0.7797450975       -0.6408358778
 S          4.1654605384        0.3868199163        0.3646373789
 O          3.5665493683        0.3070570841        1.6726959860
 O          4.1218412977        1.6821452783       -0.2783506372
 C          5.8445307907       -0.2108142296        0.4394738168
 C          6.1301417419       -1.2653648759        1.2863994086
 C          7.4242399760       -1.7590211291        1.3288005899
 C          8.4059041510       -1.1935989362        0.5282113941
 C          8.1049151793       -0.1346072413       -0.3148998735
 C          6.8119845504        0.3630215245       -0.3634378607
 H          6.5330086594        1.1890555513       -0.9975985086
 H          8.8710354369        0.3046748339       -0.9332290950
 H          9.4124634603       -1.5793407447        0.5641911013
 H          7.6623046583       -2.5804978115        1.9851423636
 H          5.3364229801       -1.6657445663        1.8956697124
 H          4.1661227031       -1.1942193661       -1.2576542453
 H          2.7250862519       -1.6341158505       -3.0421877388
 H          0.5461502397       -1.1729827437       -4.1039403939
 H         -1.1233739782        0.2288952618       -2.9472359673
 H         -1.3449715969        2.1135197634       -1.3132021101
 C         -0.4008923087        2.2476467274        0.5774810884
 C         -1.3047801425        2.8213799148        1.6259984934
 C         -0.3236884311        1.7487088493        1.9876714441
 H          0.5453658291        2.0127870267        2.5734718101
 H         -0.6922368399        0.7549193866        2.1893139561
 H         -1.1198872779        3.8278715090        1.9698188746
 H         -2.3515426162        2.5585269011        1.5787717036
 H          0.4177843434        2.8815825319        0.2468420414
