  62
        -98.94046860
 C          1.9798675490        1.2149121333        0.5240390050
 C          1.9743900398       -0.1102146965        1.0352130569
 C          3.1324878025       -0.9456957403        0.7032834412
 C          4.1372882401       -0.4273192156       -0.0252782147
 C          5.4143220818       -1.1279133063       -0.4023228081
 C          5.3028585328       -2.0040128066       -1.6573134657
 C          4.5110265107       -3.2992733248       -1.4749960451
 H          4.6932864562       -3.9140412834       -2.3587131411
 H          4.9005241483       -3.8437708900       -0.6141790869
 C          2.9976226477       -3.0964667577       -1.3180683019
 H          2.7266658389       -2.0951042686       -1.6615656502
 H          2.4665485551       -3.8058284922       -1.9570279363
 C          2.4742609378       -3.2902015419        0.1050430233
 H          2.6209705349       -4.3285126651        0.4105508694
 H          1.3997132085       -3.0907351865        0.0966754192
 C          3.1263391230       -2.3762340070        1.1513253269
 H          2.5417449301       -2.4336451063        2.0727761169
 H          4.1415925893       -2.7126374653        1.3609250380
 H          4.8542397210       -1.4121111500       -2.4586490771
 H          6.3184052922       -2.2634835859       -1.9652637560
 H          6.1522970601       -0.3457456993       -0.5934351377
 H          5.7597680361       -1.7340075523        0.4358048232
 O          4.1094580369        0.8450608992       -0.4964193060
 C          3.0241461092        1.6843669638       -0.2735698576
 O          3.1371385255        2.7906822113       -0.8372083949
 O          1.0441949675       -0.5688984523        1.7488647778
 C          0.7754403686        2.0719812784        0.8744015924
 C         -0.2946667332        1.9744651303       -0.1877719333
 C         -0.0027183782        2.2121928925       -1.5265852561
 C         -0.9843900944        2.0899662151       -2.4933287430
 C         -2.2769073419        1.7379908930       -2.1453001655
 C         -2.5819303553        1.5104740358       -0.8108508560
 C         -1.5937874421        1.6311062323        0.1592306479
 H         -1.8344786453        1.4338618625        1.1952361045
 N         -3.9053182195        1.1531572646       -0.4698020505
 S         -4.4149617072       -0.3888676152       -0.8881618176
 O         -3.9387143701       -0.6874753852       -2.2135900781
 O         -5.8463601641       -0.4067235848       -0.6947878398
 C         -3.6441216562       -1.4535365273        0.3188218734
 C         -2.2733594618       -1.6191811018        0.2775878618
 C         -1.6585107322       -2.3586903882        1.2752839375
 C         -2.4229150150       -2.9325886204        2.2798068513
 C         -3.8000320285       -2.7706868916        2.2984868218
 C         -4.4179369313       -2.0126767594        1.3169484305
 H         -5.4826006194       -1.8439434912        1.3006032163
 H         -4.3902780103       -3.2212031310        3.0802912778
 H         -1.9367994116       -3.5048539058        3.0541849677
 H         -0.5838079622       -2.4469488527        1.2833127103
 H         -1.7037668520       -1.1655911207       -0.5185050955
 H         -4.1314934441        1.3232886675        0.5006145847
 H         -3.0480625098        1.6211388508       -2.8887844145
 H         -0.7408770657        2.2717752621       -3.5293751180
 H          1.0034645376        2.4894104571       -1.8027034133
 H          0.3682547581        1.6314804683        1.7949768573
 C          1.1083691292        3.5255814472        1.1474461851
 C          0.1882822090        4.3338477739        2.0103111227
 C          1.5396144507        3.9356392417        2.5220132686
 H          2.3035263302        4.6925554302        2.6159115506
 H          1.5921598466        3.1674925888        3.2798576351
 H          0.0194359270        5.3680204603        1.7527469801
 H         -0.6760231318        3.8386275618        2.4261845091
 H          1.5797325137        4.0226506217        0.3100293829
