  62
        -98.94342295
 C         -2.4859025180       -1.1217238621        0.0085795131
 C         -3.4634718447       -0.6221748421        0.9113582328
 C         -4.4556796738        0.3020778572        0.3551338965
 C         -4.4154779221        0.6107864848       -0.9533163594
 C         -5.3733178790        1.5131772298       -1.6824738636
 C         -5.0349210413        3.0060246801       -1.5698397743
 C         -5.3074564351        3.6333262635       -0.2020957643
 H         -5.2367826002        4.7156744663       -0.3267402035
 H         -6.3296998432        3.4071100686        0.1025934991
 C         -4.3309353214        3.1988862104        0.8999131614
 H         -3.4417825634        2.7553312500        0.4455591702
 H         -3.9992801202        4.0765393183        1.4591915874
 C         -4.9138050446        2.2116361031        1.9111875064
 H         -5.7211174838        2.6916385895        2.4686573514
 H         -4.1266760038        1.9437139032        2.6204952871
 C         -5.4528086162        0.9161880823        1.2905675197
 H         -6.3915081703        1.1092981597        0.7716549862
 H         -5.6374163640        0.2007249688        2.0955457348
 H         -5.6368200671        3.5328229815       -2.3139380808
 H         -3.9838910432        3.1467873620       -1.8326530174
 H         -5.3280444295        1.2280693802       -2.7358156331
 H         -6.3867640535        1.3403329027       -1.3191079432
 O         -3.4770823585        0.0994179040       -1.7909015661
 C         -2.4837253318       -0.7574521742       -1.3376816992
 O         -1.6916829533       -1.1063595251       -2.2380218475
 O         -3.5087739691       -0.9465495548        2.1273622755
 C         -1.4623832383       -2.0841363267        0.5875262252
 C         -0.1383053267       -1.4103226999        0.8608236042
 C          0.3617864317       -1.3246661209        2.1549210782
 C          1.5876626419       -0.7305343516        2.3991167460
 C          2.3369429724       -0.2070160593        1.3609073949
 C          1.8447000361       -0.2839471616        0.0645276396
 C          0.6189208739       -0.8870500115       -0.1778332498
 H          0.2394437989       -0.9406235145       -1.1877620784
 N          2.5882575316        0.2660561583       -0.9965996343
 S          4.1731682758       -0.2595633996       -1.1871076236
 O          4.4859811405       -0.0363261577       -2.5817298431
 O          4.3448698047       -1.6081121401       -0.6974518303
 C          5.1231768737        0.8723086611       -0.1930515171
 C          5.0335639313        2.2214835813       -0.4747575705
 C          5.7724320128        3.1141239154        0.2851696457
 C          6.5866344167        2.6451454507        1.3055263789
 C          6.6690818331        1.2872110811        1.5729640709
 C          5.9312653437        0.3890340702        0.8174846713
 H          5.9591417793       -0.6747092752        0.9919201462
 H          7.3032894876        0.9245199283        2.3658354237
 H          7.1606195362        3.3424041956        1.8951960592
 H          5.7110519003        4.1707316230        0.0797370693
 H          4.3933123125        2.5436773527       -1.2790246483
 H          2.0996521297        0.2276576155       -1.8802958498
 H          3.2910095309        0.2594185341        1.5447350443
 H          1.9632266578       -0.6721047723        3.4092318217
 H         -0.2227515369       -1.7204288835        2.9726748027
 H         -1.8826509537       -2.3936893779        1.5540292561
 C         -1.2611688882       -3.3239979470       -0.2629167636
 C         -0.7199286834       -4.5651518263        0.3779399027
 C         -2.1533873281       -4.5092611897       -0.0562746814
 H         -2.4565981600       -5.0817427578       -0.9200141277
 H         -2.9145787280       -4.4339948905        0.7065694330
 H         -0.0328502274       -5.1772613634       -0.1860436075
 H         -0.5094108699       -4.5301691519        1.4360734124
 H         -0.9529365381       -3.1065101203       -1.2775644900
