  62
        -98.93752438
 C         -0.2181162241       -1.8206560811        0.4781151281
 C         -1.1975423423       -1.0670691784        1.1666852417
 C         -2.3588896149       -0.6009359832        0.3865559077
 C         -2.4225684324       -0.8969162196       -0.9237150400
 C         -3.4810907908       -0.5173959838       -1.9290139549
 C         -4.9458399618       -0.6308318757       -1.4786898603
 C         -5.6283506585        0.7228839564       -1.2727723514
 H         -5.2953444587        1.4014449817       -2.0611502443
 H         -6.7063444521        0.5912366408       -1.3898476272
 C         -5.3871978816        1.3734489701        0.0881294697
 H         -5.8061267651        2.3816455806        0.0504337966
 H         -5.9349767920        0.8212422318        0.8547073888
 C         -3.9211368931        1.4675774480        0.5154085554
 H         -3.2957845357        1.7488024655       -0.3325101278
 H         -3.8400436215        2.2715903547        1.2499906699
 C         -3.3870935818        0.1792677856        1.1604156033
 H         -2.8954015642        0.4141833416        2.1095782891
 H         -4.2197582164       -0.4846138022        1.4095505944
 H         -5.0096136778       -1.2311798128       -0.5725769319
 H         -5.4900312626       -1.1655589053       -2.2589265800
 H         -3.2713722151        0.4988161984       -2.2747816427
 H         -3.3035187788       -1.1731921215       -2.7848693254
 O         -1.4460818365       -1.6076296271       -1.5532765181
 C         -0.3095250219       -2.0488006514       -0.8961700978
 O          0.5048476457       -2.6316990697       -1.6359036304
 H          1.4161043624        0.2533108655        0.4674246602
 C          2.2343679776       -0.3706252533        0.1400079892
 C          2.2312783045       -1.7184295083        0.4786359504
 C          3.2923350435       -2.5096844494        0.0633224579
 C          4.3093924731       -1.9618582234       -0.7007399325
 C          4.2766453866       -0.6342312607       -1.0851556192
 C          3.2196467358        0.1675038120       -0.6671362289
 N          3.1341364257        1.5190490786       -1.0338961424
 S          1.6332821202        2.2156299632       -1.2956857044
 O          0.6710608056        1.2803248263       -1.8305065995
 O          1.9217828108        3.3699508872       -2.1230241808
 C          1.1334170199        2.7822501315        0.3157210128
 C         -0.0991302069        2.4183335873        0.8189085341
 C         -0.4734963654        2.8745076313        2.0725001698
 C          0.3862824451        3.6865202642        2.7953730904
 C          1.6191023917        4.0491012318        2.2732141729
 C          1.9995128232        3.5945779926        1.0210965493
 H          2.9468058269        3.8541309283        0.5790523520
 H          2.2842466492        4.6809713828        2.8393540390
 H          0.0919586715        4.0360374304        3.7723758965
 H         -1.4272527021        2.5799910085        2.4795347232
 H         -0.7345173967        1.7707250631        0.2333216689
 H          3.8166836624        1.8225108594       -1.7129911410
 H          5.0523913243       -0.2214627488       -1.7121008301
 H          5.1277380124       -2.5869593897       -1.0249337624
 H          3.3099085545       -3.5588937759        0.3085158647
 C          1.0327539688       -2.2184343703        1.2449841855
 H          0.9654401348       -1.6420634932        2.1834625001
 C          1.1167673687       -3.6820102147        1.6450851605
 C         -0.1230945193       -4.5090936297        1.8041727636
 C          0.8345211212       -4.8013329787        0.6900420178
 H          1.4387795600       -5.6943918173        0.7580826300
 H          0.5525957070       -4.5394522037       -0.3171912238
 H         -0.1791285426       -5.1990662814        2.6327411760
 H         -1.0666740727       -4.0451673077        1.5550186838
 H          1.9029447881       -3.8553887331        2.3736861540
 O         -1.1006203621       -0.7764781666        2.3900203107
