  62
        -98.93898715
 C         -0.8244521111       -1.7448748202       -0.2721469403
 C         -1.0951622411       -0.3825188800       -0.5487111795
 C         -2.2914277711        0.1847879096        0.0982717609
 C         -3.0012508311       -0.5672862709        0.9566184904
 C         -4.2617684911       -0.1479720813        1.6590628607
 C         -5.4584587611       -0.2093278807        0.6884416207
 C         -6.0840017811        1.1496801895        0.3735263115
 H         -6.7593981311        1.0110068800       -0.4732849385
 H         -6.6860437110        1.4692905690        1.2267079917
 C         -5.0986252611        2.2756248897        0.0469201122
 H         -5.6784225510        3.0860478399       -0.3999782573
 H         -4.6731140810        2.6703662391        0.9709060224
 C         -3.9520102411        1.9056543802       -0.9027434881
 H         -3.7883403911        2.7462863306       -1.5797220076
 H         -4.2250497611        1.0491091406       -1.5190147986
 C         -2.6071174911        1.6231138298       -0.2075057582
 H         -2.5361497810        2.2112765292        0.7126255621
 H         -1.7970116911        1.9480346502       -0.8668707181
 H         -6.2329253711       -0.8536767210        1.1072491203
 H         -5.1231499011       -0.6817424202       -0.2370820396
 H         -4.4111693410       -0.8368578118        2.4910176403
 H         -4.1407319310        0.8564666984        2.0592227613
 O         -2.6836409711       -1.8581754311        1.2368422097
 C         -1.6032989311       -2.4735859707        0.6309289293
 O         -1.4414514011       -3.6646477609        0.9684274085
 O         -0.3923727911        0.3474935104       -1.2972381391
 C          0.3552295789       -2.5087549999       -0.8566651708
 C          1.5897811989       -2.2749753604       -0.0193413807
 C          2.3033381789       -3.3348056907        0.5272496387
 C          3.4135317289       -3.0988888712        1.3189034688
 C          3.8178170989       -1.8055896314        1.5975459496
 C          3.1091053989       -0.7398899410        1.0546330902
 C          2.0202832189       -0.9804401905        0.2315205001
 H          1.4787136689       -0.1488045903       -0.1874906794
 N          3.4818900890        0.5880172288        1.3090247210
 S          2.2946875890        1.7601608287        1.4689501717
 O          2.9372262390        2.8155949882        2.2293171424
 O          1.0871260690        1.2246828384        2.0568460614
 C          1.9990292789        2.3690810897       -0.1765747079
 C          2.9194753389        2.1491689603       -1.1803524880
 C          2.6741101689        2.6786222411       -2.4372166477
 C          1.5257758489        3.4197357212       -2.6656881472
 C          0.6156153689        3.6372904806       -1.6440354471
 C          0.8530381590        3.1077890198       -0.3864402974
 H          0.1641646990        3.2389288194        0.4331822327
 H         -0.2811432911        4.2092306107       -1.8230633067
 H          1.3349304089        3.8252424218       -3.6469795870
 H          3.3777396589        2.5054152415       -3.2358734978
 H          3.7978505489        1.5596080902       -0.9754599884
 H          4.2227648990        0.7095870084        1.9839695011
 H          4.6690300689       -1.6199227818        2.2348367197
 H          3.9597464089       -3.9299092415        1.7388796083
 H          1.9708873389       -4.3463396306        0.3460065481
 H          0.0922590089       -3.5724500899       -0.7741609814
 C          0.6289769389       -2.1927410690       -2.3140439306
 C          1.3638464588       -3.1963702985       -3.1486621912
 C         -0.0971527512       -2.9545261783       -3.3797671510
 H         -0.4017072412       -2.4273540078       -4.2711491807
 H         -0.7966680512       -3.7145322185       -3.0622994915
 H          2.0668472788       -2.8367498781       -3.8838805610
 H          1.6543841988       -4.1236052788       -2.6783852218
 H          0.8226195289       -1.1441085289       -2.4950202400
