  62
        -98.94903926
 C         -0.9004011715       -1.3469639783        0.2395627732
 C         -1.4473860979       -0.2661975669        0.9682024056
 C         -2.2723775593        0.6747685250        0.1993206022
 C         -2.4014228186        0.5004475386       -1.1287820267
 C         -3.2204910158        1.3779581007       -2.0305540332
 C         -4.6523443708        0.8456205715       -2.1795520906
 C         -5.3263147940        0.5158313441       -0.8476433563
 H         -6.3415937539        0.1812902605       -1.0710233699
 H         -4.8046153529       -0.3250629803       -0.3849736014
 C         -5.3788959037        1.6873140963        0.1428668533
 H         -5.2166953949        2.6268531145       -0.3865409365
 H         -6.3783968308        1.7300852040        0.5805436530
 C         -4.3887206744        1.5807928988        1.3039764492
 H         -4.6624826886        2.3294508428        2.0520440400
 H         -4.4819426254        0.5986023451        1.7737613634
 C         -2.9125299395        1.8075395082        0.9523798946
 H         -2.3593838125        1.8838358051        1.8929529582
 H         -2.8038865226        2.7473599823        0.4060708967
 H         -5.2433123039        1.5904191231       -2.7158763746
 H         -4.6216091666       -0.0636688164       -2.7843264385
 H         -2.7409143709        1.3984634280       -3.0111599938
 H         -3.2371875651        2.3891162789       -1.6275810715
 O         -1.8326395222       -0.5312766374       -1.8016913977
 C         -1.0694416655       -1.4795553122       -1.1393555191
 O         -0.6159308972       -2.3795283759       -1.8723350755
 O         -1.2493342821       -0.0917234717        2.2013749367
 C         -0.0150243597       -2.3475214567        0.9613321606
 C          1.3611890787       -2.3200391449        0.3435846019
 C          2.0840994580       -3.4579253419        0.0119836838
 C          3.3168211040       -3.3448621204       -0.6082924422
 C          3.8419750597       -2.1059754184       -0.9254113912
 C          3.1331448819       -0.9602876025       -0.5802126437
 C          1.9221899180       -1.0766768367        0.0791416532
 H          1.3766100285       -0.1838440708        0.3479660452
 N          3.6297394813        0.3180192572       -0.8728642226
 S          2.5732100098        1.5687708436       -1.2201074995
 O          1.3827816569        1.1174927360       -1.9026294054
 O          3.3890384188        2.5270264458       -1.9389118112
 C          2.1709977452        2.2553388501        0.3715885814
 C          3.1987671094        2.4886367600        1.2642275970
 C          2.9018349300        3.0575519175        2.4918345683
 C          1.5912836250        3.3895497795        2.8006761477
 C          0.5724164909        3.1552664685        1.8909274099
 C          0.8619395885        2.5805191758        0.6635847663
 H          0.0945683040        2.3628658823       -0.0643238130
 H         -0.4469448719        3.4098401226        2.1318808585
 H          1.3594481782        3.8324035962        3.7564078220
 H          3.6909346568        3.2403507263        3.2032913105
 H          4.2040238670        2.2209096357        0.9851203073
 H          4.4507425266        0.3372482119       -1.4599615028
 H          4.7866123634       -2.0215368525       -1.4406232068
 H          3.8666188525       -4.2365375246       -0.8690486235
 H          1.6766718662       -4.4331297822        0.2224188734
 H          0.0593289712       -1.9814908175        1.9963878476
 C         -0.6500674163       -3.7216934123        0.9713841259
 C         -0.3676619501       -4.6778700994        2.0906445474
 C         -1.7104163400       -4.0213943715        1.9869445997
 H         -2.5579171410       -4.6189740496        1.6863073570
 H         -1.9551508983       -3.2400200988        2.6915284255
 H         -0.2952018454       -5.7306548286        1.8630537319
 H          0.2973804665       -4.3475858791        2.8739727925
 H         -0.7848747743       -4.1228473230       -0.0270447304
