  62
        -98.94319406
 C         -2.3762041582       -0.4348069169        0.1356969643
 C         -3.4139048390       -0.2574007904        1.0826994539
 C         -4.4349244049        0.7403069210        0.7387447428
 C         -4.3155827751        1.4336320988       -0.4084506067
 C         -5.3124388681        2.4371150022       -0.9098473853
 C         -6.3651907715        1.7715970693       -1.8075654908
 C         -6.9900527665        0.5151623593       -1.2008911037
 H         -7.7380352927        0.1500726468       -1.9080882583
 H         -6.2238531055       -0.2589134864       -1.1161042525
 C         -7.6453942842        0.7306287136        0.1704567591
 H         -7.8297697983        1.7935466936        0.3301949581
 H         -8.6152337565        0.2287072524        0.1779778952
 C         -6.8462869255        0.1725079031        1.3494927346
 H         -6.5801739847       -0.8689097128        1.1514614247
 H         -7.4907236643        0.1829330653        2.2325579600
 C         -5.5659629019        0.9370745558        1.7087158904
 H         -5.7922452243        1.9985853361        1.8273040214
 H         -5.2078490693        0.5525114357        2.6682048647
 H         -7.1475155079        2.5019877305       -2.0217959146
 H         -5.8900369806        1.4955171952       -2.7517479446
 H         -5.7951207485        2.9180115150       -0.0613340384
 H         -4.7786900538        3.1921190472       -1.4893376775
 O         -3.2857561425        1.2610454948       -1.2754813635
 C         -2.2953056774        0.3200125980       -1.0343445599
 O         -1.4229545995        0.2567750283       -1.9210146487
 H          0.9752982054       -1.6481522691       -1.1393351840
 C          1.0869326587       -0.9785377278       -0.3008282513
 C          0.0310774566       -0.7819440973        0.5738561554
 C          0.2081634544        0.0930551809        1.6431906862
 C          1.4067903550        0.7544806074        1.8254014490
 C          2.4563164581        0.5616243065        0.9431516389
 C          2.2916244420       -0.3087115758       -0.1243614068
 N          3.3538875487       -0.5014162860       -1.0257562048
 S          4.8396695664       -0.9684444337       -0.3986912536
 O          5.5110332543       -1.6537916784       -1.4815800643
 O          4.6818142647       -1.7107564329        0.8307929529
 C          5.6795090892        0.5683678487       -0.0781835090
 C          5.8729077313        1.4385990736       -1.1330608376
 C          6.5334262007        2.6344480151       -0.9011151992
 C          6.9897639286        2.9366089411        0.3734168021
 C          6.7911808956        2.0505146714        1.4211015052
 C          6.1299834607        0.8530783586        1.1959805745
 H          5.9484980665        0.1357762459        1.9804920299
 H          7.1474582376        2.2869175009        2.4109127945
 H          7.5038825196        3.8680532254        0.5508769203
 H          6.6900312707        3.3260628072       -1.7132381491
 H          5.5070327758        1.1646400326       -2.1085898661
 H          3.1088813975       -1.0694288797       -1.8239464692
 H          3.3932250313        1.0779484182        1.0745219080
 H          1.5269847608        1.4286604105        2.6598362952
 H         -0.6131207279        0.2454431621        2.3301894598
 C         -1.3021942205       -1.4703077183        0.4205878190
 H         -1.5701096133       -1.9051427991        1.3943422341
 C         -1.3179174056       -2.5681639415       -0.6214378477
 C         -0.6962414834       -3.8964283656       -0.3123024942
 C         -2.1867229027       -3.7685564839       -0.4013244332
 H         -2.6920261657       -4.2020540660       -1.2513648044
 H         -2.7595587887       -3.8075782511        0.5135913394
 H         -0.1779427049       -4.4216480541       -1.1005723607
 H         -0.2534204436       -4.0241399477        0.6640699806
 H         -1.2407552960       -2.1907179732       -1.6348694544
 O         -3.4817168468       -0.9028059216        2.1631892870
