  62
        -98.94111393
 C          1.8967446975        0.9137719387        0.2709161661
 C          2.3114744283       -0.0807529635        1.1909757163
 C          2.5591957899       -1.4179450377        0.6384110028
 C          2.3216489723       -1.6409596759       -0.6667136888
 C          2.5653813134       -2.9430189392       -1.3726039770
 C          3.9821570027       -3.0018893071       -1.9611039177
 C          5.0784979040       -2.6108956815       -0.9700783791
 H          6.0354953304       -2.7168115254       -1.4852359496
 H          4.9657690721       -1.5549208106       -0.7141191515
 C          5.0957684989       -3.4444850174        0.3187737116
 H          6.1272842109       -3.7258487956        0.5402505681
 H          4.5320355111       -4.3661742056        0.1711074107
 C          4.5588628294       -2.7162811398        1.5524372148
 H          5.0567106969       -1.7485151273        1.6526654579
 H          4.8137777010       -3.3082986400        2.4353406702
 C          3.0428735451       -2.4824216179        1.5829059120
 H          2.5193395885       -3.4235933336        1.4006632392
 H          2.7779883034       -2.1333344255        2.5855375756
 H          4.1621462674       -4.0149225871       -2.3252127278
 H          4.0305558307       -2.3197608351       -2.8129716204
 H          2.4157379653       -3.7615599444       -0.6708957115
 H          1.8370005359       -3.0331410577       -2.1804323885
 O          1.8721271175       -0.6789487944       -1.5100167356
 C          1.6359443258        0.6152214384       -1.0680885387
 O          1.2173669374        1.3806193109       -1.9568678296
 O          2.4649185204        0.1414034727        2.4235753789
 C          1.5928205434        2.2977455198        0.8184323488
 C          0.2301086045        2.7315799195        0.3391047466
 C         -0.0246711899        3.9317933217       -0.3095310026
 C         -1.3019377620        4.2253925910       -0.7560741166
 C         -2.3397682917        3.3301235002       -0.5802289251
 C         -2.0964064217        2.1300248339        0.0800632584
 C         -0.8261457038        1.8536710394        0.5527022049
 H         -0.6449586082        0.9158398532        1.0598540809
 N         -3.1320002960        1.2015041250        0.2940932346
 S         -2.7456936960       -0.4420539672        0.2960289669
 O         -2.2353144096       -0.7949234431        1.5985904539
 O         -1.9077876835       -0.7752798755       -0.8342341330
 C         -4.3740607013       -1.1402373989        0.0885679529
 C         -4.7913250033       -1.5289849743       -1.1701803280
 C         -6.0715892531       -2.0376025244       -1.3248673319
 C         -6.9094328241       -2.1440648694       -0.2249299507
 C         -6.4763289714       -1.7501714232        1.0325371183
 C         -5.1970513271       -1.2425353399        1.1943443059
 H         -4.8117344388       -0.9321518454        2.1514409521
 H         -7.1290392745       -1.8375765281        1.8859623793
 H         -7.9051921487       -2.5394962405       -0.3482380584
 H         -6.4092909501       -2.3470669218       -2.3007387489
 H         -4.1013230096       -1.4337776344       -1.9935498587
 H         -3.9421496435        1.3851726113       -0.2827002413
 H         -3.3282919602        3.5507585122       -0.9534225003
 H         -1.4862594825        5.1579883277       -1.2676456292
 H          0.7798444385        4.6246372636       -0.4933347226
 H          1.5326205266        2.1476459486        1.9105252818
 C          2.6848647436        3.3300292270        0.5833273571
 C          4.1058059817        2.9115398098        0.3547966204
 C          3.3198925150        3.5326302366       -0.7586138725
 H          3.5698238135        4.5396022190       -1.0593582529
 H          2.9831706925        2.9036363639       -1.5673236794
 H          4.8918467900        3.4884316981        0.8185310684
 H          4.3115535073        1.8518816946        0.3052732759
 H          2.5411563428        4.2172391991        1.1925036110
