  62
        -98.94145971
 C         -1.4812347416       -1.1906307203        0.0264157756
 C         -2.5326745235       -0.7472056682        0.8569321755
 C         -3.1328027914        0.5553320164        0.5240307067
 C         -2.6477082565        1.2585984314       -0.5169093060
 C         -3.0113432421        2.6309348058       -1.0445906304
 C         -4.3094048068        3.3152027146       -0.6234356090
 C         -5.5838132303        2.6312318775       -1.1173077264
 H         -6.4395091545        3.1508102786       -0.6807972591
 H         -5.6415202697        2.7466815884       -2.2024200170
 C         -5.6945723043        1.1410120361       -0.8053112527
 H         -6.6470521198        0.7853989398       -1.2071959259
 H         -4.9024834850        0.5982005878       -1.3250116296
 C         -5.6524434977        0.7786261707        0.6779021859
 H         -6.4097937280        1.3496543548        1.2182323966
 H         -5.9068235406       -0.2810484217        0.7646048790
 C         -4.2948440137        0.9847680876        1.3731137835
 H         -4.2723848041        0.3519600162        2.2655248918
 H         -4.1685618955        2.0138193779        1.7026081367
 H         -4.3363436076        3.4391910893        0.4552642655
 H         -4.2839643516        4.3194593561       -1.0553349564
 H         -2.1698301115        3.2776197296       -0.7692388580
 H         -2.9894818255        2.5455604032       -2.1357974626
 O         -1.6188002716        0.7951587105       -1.2826799031
 C         -0.9974583907       -0.4115524182       -1.0237302951
 O         -0.0557532414       -0.6822707365       -1.7931961173
 O         -2.9444403521       -1.4052174133        1.8531018128
 C         -0.7915974335       -2.5086430075        0.3335156048
 C          0.6793532785       -2.2516663284        0.5435060290
 C          1.6891481917       -3.0020372412       -0.0445540569
 C          3.0177783550       -2.6470943736        0.1185198466
 C          3.3653715665       -1.5265566683        0.8508752809
 C          2.3632156361       -0.7869689264        1.4633777628
 C          1.0400239626       -1.1661778332        1.3332624977
 H          0.2673579164       -0.5701639637        1.8042373398
 N          2.7155599254        0.4219852459        2.1362559011
 S          2.4408354638        1.7402580651        1.1103740097
 O          2.8983259092        2.9054858301        1.8393001742
 O          1.0597781559        1.7941564186        0.6768068677
 C          3.5342208497        1.3891817878       -0.2438648745
 C          3.0607960396        0.7045435018       -1.3455673535
 C          3.9505775157        0.3902223063       -2.3618494550
 C          5.2827351054        0.7597643817       -2.2585842403
 C          5.7396636853        1.4472314765       -1.1437499716
 C          4.8588094113        1.7632904227       -0.1225929082
 H          5.1627263196        2.2959001580        0.7634955712
 H          6.7762199420        1.7333157532       -1.0665867593
 H          5.9683804592        0.5090103481       -3.0526415615
 H          3.5910573530       -0.1479737570       -3.2241434545
 H          2.0196009830        0.4219010413       -1.3977800803
 H          2.1698719004        0.5700179265        2.9761103194
 H          4.3917682282       -1.2138700579        0.9514228713
 H          3.7891773464       -3.2358698551       -0.3528192620
 H          1.4331717120       -3.8568793043       -0.6489321108
 H         -1.2301506998       -2.8592938653        1.2797319072
 C         -1.0808421155       -3.5264316708       -0.7495462416
 C         -1.0981557275       -4.9904177275       -0.4280423834
 C         -2.3807848046       -4.2706763301       -0.7138863878
 H         -2.8886403854       -4.4661755540       -1.6463249814
 H         -3.0477593639       -4.0609606088        0.1096678014
 H         -0.7277713897       -5.6849020442       -1.1667389398
 H         -0.8978941851       -5.2806213966        0.5921638711
 H         -0.7081415998       -3.2158882700       -1.7193537093
