  62
        -98.93891174
 C         -0.0484164267       -2.1906872588        0.3927733623
 C          0.7123468898       -1.1442236451        0.9701205280
 C          2.1505794590       -1.1477211456        0.6585965229
 C          2.6479817045       -2.0427336269       -0.2111625409
 C          4.0796412181       -2.1637162938       -0.6592602659
 C          4.6211972776       -0.9582849915       -1.4516192544
 C          5.3881202502        0.0596649819       -0.5990195873
 H          5.7540801726       -0.4374154615        0.3001758125
 H          6.2677769845        0.3917781099       -1.1543448232
 C          4.6099819423        1.3181774219       -0.2049034023
 H          4.5573668713        1.9880160961       -1.0666027619
 H          5.1822583742        1.8280353558        0.5735814291
 C          3.1779504699        1.1088139823        0.2948528034
 H          2.8569106912        2.0305251538        0.7833480956
 H          2.4998129937        0.9627926325       -0.5510618179
 C          2.9900554721       -0.0655711435        1.2737940616
 H          3.9534401919       -0.4628913946        1.5900748399
 H          2.4491285397        0.2819364314        2.1564381923
 H          3.7966615632       -0.4711018687       -1.9735004217
 H          5.2987243807       -1.3510952683       -2.2115681247
 H          4.7124456823       -2.3440474792        0.2124783589
 H          4.1159749562       -3.0547967383       -1.2891495508
 O          1.8724793562       -2.9953091514       -0.7970986144
 C          0.5253164443       -3.0966279051       -0.5037844388
 O         -0.0545935908       -4.0320899727       -1.0941215954
 H         -1.2429522626        0.2345501776        0.0542433882
 C         -2.0290567401       -0.2074865933       -0.5344044334
 C         -2.3257628180       -1.5528813722       -0.3764322948
 C         -3.3401368481       -2.1096369982       -1.1455384040
 C         -4.0290101130       -1.3354130779       -2.0627623288
 C         -3.7091240707       -0.0013818788       -2.2405790447
 C         -2.6971854862        0.5639268624       -1.4724186172
 N         -2.3515904279        1.9156638551       -1.6098061113
 S         -0.7696356691        2.4234334870       -1.4045178810
 O         -0.6684518010        3.6277601530       -2.2058414556
 O          0.1764086505        1.3818831364       -1.7373742365
 C         -0.6322895799        2.8945375029        0.3081717243
 C         -1.6479576279        2.6657890907        1.2121197532
 C         -1.4723073609        3.0666530093        2.5276909883
 C         -0.2972830240        3.6893549526        2.9146684060
 C          0.7078823504        3.9263844564        1.9902914128
 C          0.5385318693        3.5281344728        0.6747638117
 H          1.2902919791        3.6968885598       -0.0802945850
 H          1.6213695439        4.4154902516        2.2898778819
 H         -0.1633078675        3.9918632219        3.9413801925
 H         -2.2548071631        2.8847874132        3.2470332758
 H         -2.5536447971        2.1767231319        0.8935594833
 H         -2.8090625504        2.4085822750       -2.3619729023
 H         -4.2321880730        0.5981547667       -2.9700038643
 H         -4.8132025624       -1.7784800293       -2.6577201641
 H         -3.5728472843       -3.1586341003       -1.0372401454
 C         -1.5416904639       -2.3801836134        0.6138525758
 H         -1.7453055939       -3.4385765395        0.3992558929
 C         -1.9958954225       -2.0794771027        2.0290125235
 C         -3.2666378618       -2.6929522649        2.5316350798
 C         -1.9459722341       -3.1614590832        3.0634473345
 H         -1.6677750228       -2.8953549779        4.0718964527
 H         -1.5864022786       -4.1323374939        2.7541050384
 H         -3.9009863833       -2.1050026590        3.1767032898
 H         -3.8049981981       -3.3500639977        1.8656070536
 H         -1.7568130384       -1.0739544974        2.3479832402
 O          0.2462919810       -0.2434583832        1.7174514938
