  62
        -98.94940718
 C         -1.3512302677       -1.5986302986        0.2695243808
 C         -1.6190807406       -0.6142269069        1.2508041096
 C         -2.7966075866        0.2296033004        1.0179665240
 C         -3.5416319992        0.0262489378       -0.0834960445
 C         -4.7522676245        0.8286146177       -0.4612638356
 C         -4.3861528655        2.0038188227       -1.3773138025
 C         -3.2248582083        2.8569698237       -0.8656323350
 H         -2.2975085966        2.2793514878       -0.9006796841
 H         -3.1002086868        3.6878304320       -1.5643211261
 C         -3.4149574947        3.4108849682        0.5531817561
 H         -3.1016703299        4.4570409916        0.5604986909
 H         -4.4709310737        3.3842159361        0.8269058011
 C         -2.5882599175        2.6936189368        1.6223093332
 H         -2.5804320348        3.3150006188        2.5222692212
 H         -1.5556497721        2.6064275531        1.2721373567
 C         -3.0906370317        1.3013952095        2.0285708383
 H         -2.5626823452        1.0085016783        2.9409568045
 H         -4.1594201239        1.3454473551        2.2493781539
 H         -4.1112453834        1.6074657667       -2.3576214852
 H         -5.2711161146        2.6315882925       -1.5003394250
 H         -5.4456925019        0.1722687779       -0.9904095938
 H         -5.2335342499        1.1960823241        0.4430586739
 O         -3.2534248411       -0.9259165317       -1.0069987044
 C         -2.1295727903       -1.7306785478       -0.8798794749
 O         -1.9482312595       -2.5099387058       -1.8349240321
 H          0.3932741699        0.0112612312       -0.4424288327
 C          1.0514549826       -0.7010853410       -0.9130615806
 C          0.9195411651       -2.0509517301       -0.6201006329
 C          1.7591472578       -2.9505791368       -1.2648376375
 C          2.6915482943       -2.4983254118       -2.1834070826
 C          2.8261848505       -1.1498028474       -2.4615954334
 C          1.9933751498       -0.2415504131       -1.8177405879
 N          2.0797003892        1.1369294763       -2.0607081036
 S          1.8020281368        2.2164078211       -0.8118353013
 O          0.3974680913        2.2787684146       -0.4985003818
 O          2.3982807284        3.4512016537       -1.2768051468
 C          2.7501470298        1.5763564220        0.5571438556
 C          2.1395081364        0.9694737911        1.6348652256
 C          2.9346974454        0.4434611932        2.6422959410
 C          4.3146663894        0.5318928947        2.5578494507
 C          4.9131912359        1.1529102158        1.4714458925
 C          4.1256578118        1.6774824431        0.4610248937
 H          4.5506610618        2.1793279630       -0.3931401523
 H          5.9869274311        1.2264418007        1.4092331989
 H          4.9257055142        0.1172402158        3.3440238462
 H          2.4597096783       -0.0364420567        3.4832331988
 H          1.0637813610        0.9017900124        1.6871455914
 H          2.8491684171        1.4243822220       -2.6466316952
 H          3.5575230585       -0.8025947347       -3.1750467112
 H          3.3308330818       -3.2081648822       -2.6859231980
 H          1.6779512238       -4.0045388796       -1.0552382919
 C         -0.1042028872       -2.4507460509        0.4163872815
 H          0.3095519247       -2.1881813071        1.4027648549
 C         -0.4338183634       -3.9278279006        0.4068664518
 C          0.4003126029       -4.8924002112        1.1946689031
 C         -0.9850370193       -4.5525774429        1.6526631540
 H         -1.7615141804       -5.2963492347        1.5559296917
 H         -1.0972197664       -3.9163230292        2.5185754003
 H          0.5750983569       -5.8758855153        0.7851794463
 H          1.2301678934       -4.4932775659        1.7580269097
 H         -0.8441082140       -4.2571875673       -0.5405715798
 O         -0.9004674508       -0.4481198627        2.2743537636
