  62
        -98.94665904
 C          2.4548399388        0.4486735726       -0.0569185065
 C          2.1549485790        1.5636540944       -0.8726315822
 C          1.4426314598        2.6634690502       -0.2158789228
 C          1.1234465641        2.5653617258        1.0876677577
 C          0.3688626305        3.5900498144        1.8905472951
 C         -1.1544742275        3.4799366714        1.7325741027
 C         -1.7083983017        4.0011796057        0.4054220766
 H         -2.7893248461        4.0965367084        0.5263927477
 H         -1.3107536999        4.9984299451        0.2116099098
 C         -1.4282192580        3.0854261052       -0.7940246339
 H         -1.1646661430        2.0902512767       -0.4283591914
 H         -2.3398229481        2.9796214801       -1.3873570608
 C         -0.3314986184        3.5854130148       -1.7348683733
 H         -0.1834626941        2.8370606429       -2.5176699481
 H         -0.6531749970        4.5142204366       -2.2121723718
 C          1.0225352235        3.8314732509       -1.0576774605
 H          0.9822616639        4.7376900829       -0.4537404141
 H          1.7761300022        3.9632987517       -1.8384970749
 H         -1.4385216741        2.4311541280        1.8557737983
 H         -1.6107548478        4.0505087781        2.5453332770
 H          0.6217374270        3.4127636222        2.9381750199
 H          0.6971047198        4.5935814997        1.6171121957
 O          1.4747388157        1.4977652203        1.8516992737
 C          2.1032621514        0.3983546133        1.2926339053
 O          2.3168612719       -0.5357114264        2.0922421495
 O          2.4588733776        1.6303219837       -2.0958107422
 C          3.0826892918       -0.7809134674       -0.6880064225
 C          2.1713248779       -1.9652967518       -0.4732162575
 C          2.6279468136       -3.2365968513       -0.1520572554
 C          1.7293353785       -4.2604724660        0.0960018962
 C          0.3666414978       -4.0302781699        0.0636266651
 C         -0.1002778683       -2.7647895893       -0.2732418920
 C          0.8012224942       -1.7624013818       -0.5848860025
 H          0.4305819721       -0.7862774697       -0.8585013680
 N         -1.4832074570       -2.4771239377       -0.3107108594
 S         -2.0650307893       -1.2434783520        0.6930937426
 O         -1.2207005164       -0.0826558215        0.6141392368
 O         -2.3017399100       -1.7868358882        2.0166520449
 C         -3.6257006592       -0.9085271182       -0.0988814497
 C         -3.6112446313       -0.1920610536       -1.2796660833
 C         -4.8108104789        0.0594436274       -1.9256414536
 C         -5.9982599941       -0.4103677816       -1.3838394325
 C         -5.9966860178       -1.1283109088       -0.1978669728
 C         -4.7994656064       -1.3823465294        0.4533114680
 H         -4.7498962899       -1.9284490238        1.3814288772
 H         -6.9213982041       -1.4905087782        0.2215666378
 H         -6.9303797478       -0.2134760136       -1.8893936995
 H         -4.8147244970        0.6187792890       -2.8473311609
 H         -2.6654085004        0.1584468029       -1.6601454282
 H         -2.0379627052       -3.3024906950       -0.1174548069
 H         -0.3322757167       -4.8184883406        0.3020994437
 H          2.0965960904       -5.2443465203        0.3465121039
 H          3.6871196187       -3.4238587250       -0.0807719537
 H          3.1377167833       -0.5651975716       -1.7658826619
 C          4.4854325482       -1.0016970397       -0.1618100870
 C          5.5331814242       -1.6302095811       -1.0303254886
 C          5.6029920549       -0.1681140094       -0.7109521364
 H          6.3679463765        0.1788890256       -0.0327279399
 H          5.3538696782        0.5400705236       -1.4875897439
 H          6.2561992807       -2.2878306942       -0.5716660481
 H          5.2474934281       -1.9150917461       -2.0315716304
 H          4.4973955937       -1.2196752245        0.9005929224
