  62
        -98.94136985
 C         -1.8815285347        0.5886345809        0.0124087288
 C         -2.6157674420        0.1625278411       -1.1235917487
 C         -3.7085721294       -0.7827473818       -0.8705297742
 C         -3.9075190250       -1.2516547741        0.3742996437
 C         -4.9651836826       -2.2374365919        0.7906515087
 C         -6.3328355759       -1.6012053344        1.0748155172
 C         -7.0992512621       -1.1264059095       -0.1604812476
 H         -7.1553479321       -1.9384468953       -0.8861759097
 H         -8.1191143888       -0.9061855414        0.1610344904
 C         -6.5117563628        0.1246360757       -0.8286262711
 H         -5.8323972323        0.6228468923       -0.1328797739
 H         -7.3151856836        0.8305846240       -1.0505234873
 C         -5.7707793102       -0.1447044510       -2.1384959050
 H         -5.3659010490        0.8024252379       -2.5046018497
 H         -6.4728147379       -0.5211526183       -2.8856805472
 C         -4.6097811264       -1.1401278407       -2.0135424990
 H         -4.9934458464       -2.1532517511       -1.8945915913
 H         -4.0178191546       -1.0946711657       -2.9310277027
 H         -6.9402977240       -2.3510690580        1.5868414576
 H         -6.1922798463       -0.7630251495        1.7613775222
 H         -5.0721437774       -3.0064173921        0.0248398977
 H         -4.6067569780       -2.7085140164        1.7085650832
 O         -3.1254393392       -0.8871631285        1.4235640151
 C         -2.1091422431        0.0524057595        1.2811592753
 O         -1.5017866409        0.2963867180        2.3391598466
 O         -2.3634830148        0.5490624635       -2.2961331313
 C         -0.7743376142        1.6034881803       -0.2093392188
 C          0.4917904685        1.1533187304        0.4744773709
 C          1.1438919967        1.8874376153        1.4553187530
 C          2.2952862775        1.3972324479        2.0475075292
 C          2.8235975159        0.1764273392        1.6728604685
 C          2.1856515281       -0.5610254702        0.6826274055
 C          1.0372160564       -0.0650384779        0.0859331270
 H          0.5359148813       -0.6447607936       -0.6798285429
 N          2.7160111810       -1.7999091222        0.2882018594
 S          4.3705137334       -1.9424485671        0.0977171754
 O          4.5469243754       -3.0128421932       -0.8589015356
 O          4.9954669463       -2.1386071475        1.3821110698
 C          4.9011966687       -0.3881905682       -0.5997963403
 C          5.7942385500        0.4076842123        0.0880087611
 C          6.1688641310        1.6238693847       -0.4605861743
 C          5.6440172268        2.0220216557       -1.6799849547
 C          4.7507138026        1.2091645733       -2.3612633628
 C          4.3738509653       -0.0081590013       -1.8181795227
 H          3.6855233829       -0.6651381561       -2.3255529046
 H          4.3438533952        1.5199515177       -3.3101749000
 H          5.9324742431        2.9707467356       -2.1041028614
 H          6.8648410640        2.2567420548        0.0658750801
 H          6.1763919168        0.0601807141        1.0339681339
 H          2.2136810800       -2.2475529313       -0.4632514292
 H          3.7048218796       -0.2278441162        2.1437785536
 H          2.7840408129        1.9714081163        2.8196594555
 H          0.7354409683        2.8301994597        1.7790227704
 H         -0.5971634002        1.5732576106       -1.2978229621
 C         -1.1668083325        3.0357462619        0.1208893606
 C         -2.5934640326        3.4848539585        0.0242571954
 C         -1.9246090526        3.3975171410        1.3616666617
 H         -1.6705229695        4.3180743086        1.8666622152
 H         -2.2035621383        2.5975333593        2.0291565605
 H         -2.7982625424        4.4612376509       -0.3885711924
 H         -3.3369981417        2.7416168437       -0.2253333597
 H         -0.4187218739        3.7467502284       -0.2156324794
