  62
        -98.94359054
 C          2.5555151393       -0.0070265372        0.1350598990
 C          2.4419036359       -1.1525152054        0.9617930188
 C          1.9582227910       -2.3761938613        0.3154431559
 C          1.6480008637       -2.3583481879       -0.9931334415
 C          1.1274396815       -3.5177477310       -1.7980887696
 C         -0.3923882351       -3.6982329472       -1.6826741430
 C         -0.8716307701       -4.2960085033       -0.3591425667
 H         -1.9110323063       -4.5987060079       -0.5004767896
 H         -0.2957009256       -5.1948251256       -0.1344773986
 C         -0.8022728209       -3.3263571440        0.8287251606
 H         -1.7301630084       -3.3829040603        1.4038473433
 H         -0.7324638244       -2.2988537263        0.4616421237
 C          0.3445293330       -3.5876717492        1.8059726248
 H          0.3180198613       -2.8038200190        2.5678672726
 H          0.1902038291       -4.5485392769        2.3033267816
 C          1.7412918517       -3.5878495525        1.1711539773
 H          2.4811124729       -3.5634174056        1.9755115872
 H          1.8881327096       -4.4961805424        0.5866876104
 H         -0.8677693363       -2.7250065436       -1.8306292599
 H         -0.7085181790       -4.3576754885       -2.4944643061
 H          1.6325157424       -4.4361050031       -1.4971432748
 H          1.3734067694       -3.3076611455       -2.8411985416
 O          1.7888708655       -1.2473222477       -1.7596920396
 C          2.1804165109       -0.0353221154       -1.2103047995
 O          2.1737141017        0.9072873141       -2.0247623405
 O          2.7254149857       -1.1487098843        2.1914347621
 C          2.9011155412        1.3147566615        0.8030435557
 C          1.8294613349        2.3112693724        0.4363040405
 C          2.0650954912        3.5508398624       -0.1403842529
 C          1.0022817421        4.3517279628       -0.5245298111
 C         -0.3036800535        3.9271407039       -0.3674393635
 C         -0.5486961021        2.6920989557        0.2245914602
 C          0.5141063092        1.9177004779        0.6516519092
 H          0.3163145654        0.9597588540        1.1123547364
 N         -1.8601195077        2.2162248698        0.4068374306
 S         -2.0974764916        0.5426770960        0.3668826095
 O         -1.8094836527        0.0158670480        1.6779341456
 O         -1.3881200072       -0.0533162615       -0.7423546649
 C         -3.8561276676        0.4804988502        0.0794444765
 C         -4.3301034195        0.2260462255       -1.1931847819
 C         -5.6994975080        0.2121857322       -1.4086950568
 C         -6.5663390899        0.4551118450       -0.3539729079
 C         -6.0756652411        0.7081258303        0.9186615241
 C         -4.7079800028        0.7214455155        1.1410598237
 H         -4.2792518532        0.9030769464        2.1126955436
 H         -6.7526992718        0.8938073282        1.7367072702
 H         -7.6311845088        0.4446391243       -0.5246522091
 H         -6.0828739686        0.0124127848       -2.3962827894
 H         -3.6172410281        0.0374341560       -1.9802050895
 H         -2.5368453043        2.7048835609       -0.1634279493
 H         -1.1272169580        4.5377304634       -0.7052634021
 H          1.1964052360        5.3105653177       -0.9810836821
 H          3.0764782287        3.8759007774       -0.3214704165
 H          2.8119035370        1.1013000008        1.8825109885
 C          4.3188000637        1.8137222901        0.5785731230
 C          5.4253228458        0.8597006692        0.2436316782
 C          4.9578738441        1.8523138884       -0.7759557073
 H          5.6049457499        2.6851155311       -1.0101574857
 H          4.3748517109        1.5002023898       -1.6116689788
 H          6.3894166135        1.0075873658        0.7066515713
 H          5.1605935195       -0.1785452070        0.1031597241
 H          4.5736574470        2.6215286726        1.2581447074
