  62
        -98.94111040
 C         -2.1051541798       -0.8153761200       -0.3846576207
 C         -3.0503615200       -0.6190802701        0.6573886192
 C         -3.5601808501        0.7454118499        0.8348739891
 C         -3.0938660401        1.7260111099        0.0408675091
 C         -3.5453982602        3.1564361999        0.0843598990
 C         -4.7195223202        3.4013819397       -0.8737489812
 C         -5.8498421501        2.3814791396       -0.7367287112
 H         -6.6356187400        2.6706766595       -1.4377880013
 H         -5.4839482800        1.4009693996       -1.0496164711
 C         -6.4392563902        2.2738381996        0.6765490387
 H         -7.5284646402        2.2563717895        0.6014690286
 H         -6.1687831404        3.1551696797        1.2591655587
 C         -6.0253707102        1.0153536897        1.4416248788
 H         -6.2053111700        0.1336041997        0.8216220489
 H         -6.6627641003        0.9295290097        2.3255890388
 C         -4.5697010402        0.9758193299        1.9241325890
 H         -4.3384909104        1.8906567699        2.4740189690
 H         -4.4681224702        0.1293283999        2.6095931791
 H         -5.1078269203        4.4052558997       -0.6928011112
 H         -4.3437960901        3.3612390497       -1.8986909511
 H         -3.8345465004        3.4074349699        1.1032011589
 H         -2.7063252303        3.7891736199       -0.2104216510
 O         -2.1774029300        1.5081160199       -0.9334023508
 C         -1.6578736499        0.2446425100       -1.1733194107
 O         -0.8285371598        0.2255261200       -2.1062531706
 H          0.7647989203       -1.0116257798       -1.1942943304
 C          0.8680136602       -1.6327342097       -0.3167051203
 C         -0.2306216997       -2.3433321898        0.1460137296
 C         -0.0854883098       -3.1134325697        1.2937680097
 C          1.1266484101       -3.1647085796        1.9606608198
 C          2.2155302901       -2.4440498995        1.5031672899
 C          2.0765588502       -1.6674729896        0.3608059898
 N          3.1740738101       -0.8952895695       -0.1004515901
 S          3.5352817899        0.4098608106        0.9174261498
 O          3.9682948598       -0.1137157993        2.1876795799
 O          2.4233699398        1.3377105605        0.9585464997
 C          4.9144121899        1.1389144506        0.0565688799
 C          6.1903815500        0.6830390708        0.3257187601
 C          7.2565426500        1.2283752008       -0.3716589398
 C          7.0299266700        2.2124415808       -1.3222605599
 C          5.7430862600        2.6598000306       -1.5813371201
 C          4.6723697099        2.1179555606       -0.8878354601
 H          3.6563197299        2.4423253405       -1.0505823903
 H          5.5686508300        3.4262819206       -2.3193409301
 H          7.8608599700        2.6361834008       -1.8637612299
 H          8.2587774500        0.8852629809       -0.1720595997
 H          6.3177198300       -0.0775137292        1.0779381101
 H          2.9639291502       -0.5084619296       -1.0136833502
 H          3.1557754001       -2.4507152694        2.0291982699
 H          1.2223978201       -3.7658199095        2.8522513198
 H         -0.9388747098       -3.6547313998        1.6760261796
 C         -1.5654182397       -2.2279485300       -0.5513163905
 H         -2.2770747197       -2.8718014200       -0.0172873906
 C         -1.4881353595       -2.6895836301       -1.9924931805
 C         -1.4246016293       -4.1590506401       -2.2787643304
 C         -2.6660352794       -3.3850863902       -2.6033638406
 H         -2.8984585393       -3.1885870103       -3.6391871106
 H         -3.5369371194       -3.5330870002       -1.9815223707
 H         -1.4537051794       -4.8331661300       -1.4361817904
 H         -0.8019744292       -4.4979225001       -3.0922659603
 H         -0.9198443395       -2.0259574500       -2.6305646705
 O         -3.4519153899       -1.5512669701        1.4042537692
