  62
        -98.94398707
 C          1.6842708366        1.3183847160        0.3197631136
 C          1.3629669164        0.2627513487       -0.5618061370
 C          1.9498144590       -1.0524285541       -0.2600188597
 C          2.7207029857       -1.1954187030        0.8337762311
 C          3.3847935994       -2.4202978322        1.4272896409
 C          3.5749317113       -3.6872757677        0.5968728322
 C          4.5336430228       -3.5437506402       -0.5839848059
 H          5.5433510058       -3.3875179050       -0.1962148412
 H          4.5314225216       -4.4847439431       -1.1384564809
 C          4.2236370347       -2.3996387857       -1.5457954944
 H          4.9636236835       -2.4301003822       -2.3500408657
 H          4.3466634302       -1.4446452427       -1.0308903460
 C          2.8373209929       -2.4430957531       -2.1861383226
 H          2.6780531481       -3.4175758571       -2.6512904786
 H          2.8184481434       -1.6873434045       -2.9754593627
 C          1.6573356495       -2.1508503165       -1.2406128940
 H          0.8152887523       -1.8045062732       -1.8467559815
 H          1.3286905032       -3.0464413982       -0.7173980481
 H          3.9915127007       -4.4397638186        1.2722853033
 H          2.6127004720       -4.0637348288        0.2620876342
 H          4.3594845493       -2.0820393665        1.7938112751
 H          2.7913606217       -2.6739217147        2.3134897966
 O          2.9876853945       -0.1489730743        1.6701792686
 C          2.4771453725        1.1166806007        1.4454556779
 O          2.7985379742        1.9642233222        2.3051725330
 O          0.6052689281        0.4082198966       -1.5579428859
 C          1.0900495829        2.6962843272        0.0933847744
 C         -0.4149795897        2.5952400985        0.0224383616
 C         -1.1878753839        3.3114461190       -0.8832720059
 C         -2.5631832607        3.1552098031       -0.9103979431
 C         -3.1928632107        2.2688672281       -0.0557045319
 C         -2.4288845151        1.5564791861        0.8611591467
 C         -1.0583365076        1.7466706625        0.9144165325
 H         -0.4806493452        1.1868404091        1.6359381136
 N         -3.0132651972        0.6215220289        1.7423621077
 S         -2.5562391645       -0.9814974638        1.5536198029
 O         -3.3506090647       -1.7119142211        2.5188773412
 O         -1.1271120874       -1.1083254562        1.6769132216
 C         -3.1028644334       -1.3986994206       -0.0929220193
 C         -2.3557308575       -0.9919230375       -1.1800342390
 C         -2.8371855824       -1.2566161599       -2.4535473568
 C         -4.0464468349       -1.9136192763       -2.6183571163
 C         -4.7846186590       -2.3144860810       -1.5146696861
 C         -4.3129260703       -2.0505092848       -0.2393523949
 H         -4.8497856771       -2.3440636654        0.6483645389
 H         -5.7243005065       -2.8270156951       -1.6436377893
 H         -4.4141278378       -2.1142710085       -3.6123233107
 H         -2.2569676590       -0.9402305944       -3.3055968936
 H         -1.4150612143       -0.4838079397       -1.0327102686
 H         -4.0230448020        0.6706221001        1.7720907022
 H         -4.2622395320        2.1257541854       -0.0953907255
 H         -3.1501469311        3.7172115301       -1.6205713395
 H         -0.7114444460        3.9879693722       -1.5738611446
 H          1.3558838129        3.2931057871        0.9786991377
 C          1.7059959814        3.3377002051       -1.1336681842
 C          1.8759750686        4.8246251847       -1.2094164905
 C          3.0722353580        3.9420981856       -1.0217083186
 H          3.7604768997        3.8193117844       -1.8444444786
 H          3.5450518464        3.9155664874       -0.0503268328
 H          1.7469546847        5.3109452896       -2.1646063712
 H          1.5439374623        5.4103315975       -0.3655246672
 H          1.4699753722        2.7996978002       -2.0446244719
