  62
        -98.93813474
 C          1.9865318786        1.3900202487        0.3092103828
 C          2.6343536258        0.7222288387       -0.7568618441
 C          3.7866451966       -0.1200485931       -0.3905705729
 C          4.1565631179       -0.2130182552        0.8981367733
 C          5.3154319308       -0.9786651749        1.4856825243
 C          5.5505565193       -2.4068007391        0.9723818194
 C          4.2833353863       -3.1654870453        0.5511034420
 H          4.2770919415       -4.1428997354        1.0374137235
 H          3.3940936468       -2.6298652309        0.8885610220
 C          4.1979126443       -3.3939680752       -0.9602063567
 H          3.5109630166       -4.2219923108       -1.1518683177
 H          5.1826246828       -3.6961707676       -1.3234565800
 C          3.7068311381       -2.2011834787       -1.7803075482
 H          2.6406447431       -2.0382046456       -1.5978892114
 H          3.8125153482       -2.4549946908       -2.8378079092
 C          4.4334142365       -0.8719019104       -1.5176764174
 H          5.4944847847       -1.0307617803       -1.3411258950
 H          4.3158708400       -0.2455121980       -2.4060148690
 H          6.2424884658       -2.3823643723        0.1316904438
 H          6.0504178265       -2.9523230564        1.7745123586
 H          6.2246609231       -0.3900801577        1.3337849792
 H          5.1238096392       -1.0030474139        2.5611117043
 O          3.4960793032        0.4429218094        1.8946712714
 C          2.3963973829        1.2424706992        1.6322346363
 O          1.8743827447        1.7506828229        2.6462040603
 H         -0.0741566944       -0.1295010537        0.7852460460
 C         -0.6216748098        0.2166775780       -0.0834655496
 C         -0.3084776949        1.4565018425       -0.6281299261
 C         -1.0322453910        1.8959890779       -1.7283403136
 C         -2.0151747744        1.0960901814       -2.2867184228
 C         -2.3044820164       -0.1480241581       -1.7587552528
 C         -1.6018284010       -0.5876797666       -0.6432504086
 N         -1.8998919050       -1.8420415765       -0.0851827832
 S         -3.5102361318       -2.2601923694        0.0941335174
 O         -3.5406219900       -3.1750631529        1.2138499504
 O         -4.0189308563       -2.7767851963       -1.1520329983
 C         -4.3510654452       -0.7403148284        0.5027491819
 C         -5.3576775636       -0.2686498764       -0.3148646262
 C         -5.9784029431        0.9275306232        0.0079484523
 C         -5.5802823363        1.6297722344        1.1346337681
 C         -4.5693628017        1.1410369748        1.9483219513
 C         -3.9474356766       -0.0556423603        1.6320051466
 H         -3.1611404261       -0.4629498852        2.2477998297
 H         -4.2597706837        1.6879818888        2.8245635257
 H         -6.0597453446        2.5634902859        1.3826019552
 H         -6.7661086832        1.3089683791       -0.6214196308
 H         -5.6326130533       -0.8450352430       -1.1831498431
 H         -1.3668792418       -2.0632070885        0.7424098297
 H         -3.0513636829       -0.7907167524       -2.1957407446
 H         -2.5604158635        1.4451038808       -3.1500771013
 H         -0.8196213578        2.8609304010       -2.1575358680
 C          0.7809204597        2.2688725229        0.0304814194
 H          0.4122627481        2.5985123790        1.0130798229
 C          1.1950439965        3.4873772618       -0.7678908770
 C          0.4493159151        4.7783333018       -0.6184280247
 C          1.8280657696        4.6390619628       -0.0484410415
 H          2.6424486371        5.1617577234       -0.5272683764
 H          1.9357659513        4.5543988105        1.0234634416
 H         -0.3819802328        4.7993099884        0.0697538577
 H          0.3185575110        5.4024493633       -1.4895113189
 H          1.5892044820        3.2298971237       -1.7440796665
 O          2.2758458963        0.8256818578       -1.9578406114
