  62
        -98.94125968
 C         -2.4875344996       -1.3625446046       -0.0188078425
 C         -3.2289258016       -0.6968995082        0.9928625786
 C         -4.0906378835        0.4052847200        0.5546494863
 C         -4.1475700936        0.7258055867       -0.7502781526
 C         -4.9977310255        1.8050298583       -1.3637000693
 C         -4.3752925350        3.2063028382       -1.2953835813
 C         -4.3666243242        3.8474267877        0.0928965775
 H         -4.1115448017        4.9003229076       -0.0424541206
 H         -5.3703210489        3.8068725387        0.5171525050
 C         -3.3652303624        3.2211694630        1.0737568503
 H         -2.8152284837        4.0126214162        1.5882322634
 H         -2.6273664086        2.6345551748        0.5201477557
 C         -3.9975650885        2.3366513597        2.1486458364
 H         -3.1942380895        1.9140226850        2.7575427166
 H         -4.6290361709        2.9462596596        2.7987398134
 C         -4.8381191360        1.1765078129        1.5999456567
 H         -5.0569665342        0.4926521193        2.4236008221
 H         -5.7780771905        1.5514782518        1.1955555941
 H         -3.3530038717        3.1551645355       -1.6782667083
 H         -4.9489973460        3.8502955270       -1.9659507585
 H         -5.9763809107        1.8171424919       -0.8830354112
 H         -5.1286619109        1.5375806882       -2.4144993003
 O         -3.4272882469        0.0638839021       -1.6921135417
 C         -2.5664078721       -0.9757335145       -1.3567786998
 O         -1.9581958112       -1.4466307212       -2.3372800050
 O         -3.1811280837       -1.0229442272        2.2087337254
 C         -1.5986463703       -2.5082078605        0.4359020201
 C         -0.1900632726       -2.0291060021        0.6776861427
 C          0.4401820724       -2.2340228938        1.8990408011
 C          1.7244333192       -1.7647097974        2.1160701276
 C          2.4053876485       -1.0852324545        1.1219408284
 C          1.7819280182       -0.8702439672       -0.1003565165
 C          0.4958248880       -1.3420398175       -0.3151350806
 H          0.0146145884       -1.1704088787       -1.2672596396
 N          2.4654085051       -0.1794325674       -1.1203941963
 S          3.0185759432        1.3639644479       -0.7445696106
 O          2.2146921320        1.9732946027        0.2905632113
 O          3.0858951124        2.0672528995       -2.0070376471
 C          4.6725203474        1.0796864106       -0.1494992030
 C          5.5637120436        0.4422069313       -0.9905473522
 C          6.8551690615        0.2105265420       -0.5449734348
 C          7.2320772027        0.6206266152        0.7254168258
 C          6.3266214200        1.2628808647        1.5560560542
 C          5.0324945936        1.4966256144        1.1169533756
 H          4.2920445648        1.9867901122        1.7289443845
 H          6.6217875212        1.5812614288        2.5429699303
 H          8.2377644887        0.4387259768        1.0700683673
 H          7.5620688969       -0.2884864856       -1.1880666855
 H          5.2305434416        0.1445005549       -1.9707745162
 H          1.9509058871       -0.1586191638       -1.9902685402
 H          3.4044872240       -0.7153436180        1.2850949701
 H          2.2003642697       -1.9287638244        3.0706741597
 H         -0.0905820644       -2.7489317454        2.6863866962
 H         -2.0156113889       -2.8073340819        1.4105878101
 C         -1.6730715811       -3.7227908131       -0.4798946237
 C         -0.5334309585       -4.2061892615       -1.3210520429
 C         -0.9466575369       -4.9821387394       -0.1089866348
 H         -1.4481778549       -5.9285490520       -0.2418710528
 H         -0.2968050820       -4.9409368186        0.7521559803
 H         -0.7687376076       -4.5986320987       -2.2986622693
 H          0.3978112065       -3.6634873439       -1.2855188536
 H         -2.6636493242       -3.8414455636       -0.9077989060
