  62
        -98.94165521
 C         -2.2737482789       -0.7920988617        0.2350552817
 C         -1.5684684443       -0.0506264270       -0.7402482263
 C         -1.7862411441        1.4084125688       -0.7531887316
 C         -2.5444552839        1.9712847658        0.2047318311
 C         -2.9688234599        3.4066781778        0.4355166705
 C         -2.3170418827        4.5487078794       -0.3380449856
 C         -0.8586664478        4.8138335966        0.0324477879
 H         -0.4705348815        5.5849313592       -0.6369558206
 H         -0.8243618905        5.2088884107        1.0509977216
 C          0.0668097472        3.6008102115       -0.0223545323
 H          1.0715960885        3.9315045036        0.2581065337
 H         -0.2315372157        2.8593249337        0.7223902234
 C          0.1681589071        2.9178341562       -1.3838293763
 H          0.9817682626        2.1911942711       -1.3156203183
 H          0.4361976427        3.6530257905       -2.1457826013
 C         -1.0922967429        2.1681095235       -1.8486758852
 H         -1.7918826654        2.8429437004       -2.3379758607
 H         -0.7835800344        1.4230498236       -2.5878999897
 H         -2.4158877934        4.3855126761       -1.4070629393
 H         -2.8866681947        5.4511138023       -0.0996595652
 H         -4.0480583804        3.4288246073        0.2458311164
 H         -2.8420633557        3.5838863170        1.5086297309
 O         -3.1357082909        1.2229430383        1.1830874915
 C         -3.0162371561       -0.1529542792        1.2277165455
 O         -3.6075911701       -0.6874695348        2.1888988711
 H         -0.1868583673       -1.2817328722        1.8054884899
 C          0.1970803661       -2.0169505147        1.1124766115
 C         -0.6775686383       -2.6754429305        0.2564920525
 C         -0.1604704764       -3.6181736261       -0.6221178512
 C          1.1999938893       -3.8750210121       -0.6515712644
 C          2.0719817324       -3.1803281293        0.1665032857
 C          1.5625123967       -2.2338044876        1.0484221481
 N          2.4047928121       -1.4635478249        1.8788684019
 S          2.4238642254        0.1911861845        1.5986149850
 O          3.3605724220        0.7256724088        2.5647593412
 O          1.0842826812        0.7143508274        1.6527827194
 C          3.1217952743        0.3518023883       -0.0364480270
 C          4.4379795442        0.7573380354       -0.1527366559
 C          5.0130092847        0.8267212379       -1.4109794654
 C          4.2680703841        0.4799121739       -2.5283826796
 C          2.9514147838        0.0689960363       -2.3940877178
 C          2.3657682065        0.0019579185       -1.1379629111
 H          1.3389809581       -0.3094866311       -1.0200340911
 H          2.3637335857       -0.2018877644       -3.2565467370
 H          4.7146660797        0.5299606998       -3.5089102551
 H          6.0369562938        1.1475593020       -1.5154996119
 H          4.9763024969        1.0155898680        0.7449360502
 H          3.3577527660       -1.8001381283        1.9147157536
 H          3.1358587263       -3.3589316279        0.1206139113
 H          1.5888037295       -4.6103165715       -1.3393686956
 H         -0.8178639315       -4.1365658107       -1.3005079542
 C         -2.1370330354       -2.3020721879        0.3474150339
 H         -2.4778803546       -2.5382871417        1.3697354689
 C         -3.0293918764       -3.0886547027       -0.6009106340
 C         -4.2983072775       -2.4964020235       -1.1358506675
 C         -3.1445174653       -2.7517057883       -2.0560260380
 H         -3.2269219199       -3.5631506265       -2.7642507115
 H         -2.5777472656       -1.9090269309       -2.4174183779
 H         -5.1688029573       -3.1311909066       -1.2078360331
 H         -4.5246918294       -1.4743234132       -0.8673919625
 H         -3.0689141305       -4.1415149752       -0.3386225007
 O         -0.7986410527       -0.5732199413       -1.5881780605
