  62
        -98.94054864
 C          2.3438375254       -0.1597459185       -0.2805329467
 C          3.5110156305       -0.5158313598       -0.9973990369
 C          4.7310279929        0.2224063030       -0.6460563665
 C          4.6690766198        1.1840544389        0.2933586249
 C          5.8446365341        1.9759289903        0.7867856069
 C          6.4990912638        1.2998103600        1.9997543547
 C          6.7837026234       -0.1886520666        1.7983743647
 H          7.2723691760       -0.5517846064        2.7051283115
 H          5.8354888439       -0.7237922203        1.7086536564
 C          7.6625822764       -0.5081262153        0.5809790688
 H          8.1885724376        0.3907811664        0.2576664494
 H          8.4191685848       -1.2377009788        0.8772761610
 C          6.9073726152       -1.1076363783       -0.6066755364
 H          7.6426593099       -1.4945361866       -1.3172085869
 H          6.3035643772       -1.9533671868       -0.2679470745
 C          5.9950832878       -0.1416068909       -1.3731211864
 H          5.6776600790       -0.6430498034       -2.2921008261
 H          6.5550393743        0.7548964548       -1.6465172138
 H          7.4300112543        1.8229001862        2.2258653751
 H          5.8312518717        1.4072693423        2.8576080277
 H          5.4926810087        2.9663089010        1.0800059659
 H          6.5689949563        2.0814678903       -0.0184316343
 O          3.5233559501        1.5155684009        0.9423178016
 C          2.3347799792        0.8492352561        0.6823417008
 O          1.3662707267        1.2445290424        1.3584148523
 O          3.5296500084       -1.4045564570       -1.8915536432
 C          1.0509136045       -0.8980740468       -0.5725529300
 C         -0.0241877426        0.0675305386       -1.0053076413
 C          0.2569035888        0.9732797490       -2.0259171715
 C         -0.7007437038        1.8683424746       -2.4599666848
 C         -1.9654719338        1.8704475044       -1.8977099848
 C         -2.2567601482        0.9711669210       -0.8797023754
 C         -1.2891028186        0.0771017331       -0.4409274005
 H         -1.5450388370       -0.6079574511        0.3495579754
 N         -3.5221336879        0.9661059028       -0.2716837007
 S         -4.1644134800       -0.5003783140        0.2601850688
 O         -3.6347986097       -0.8034737856        1.5657767110
 O         -3.9880514054       -1.5161882297       -0.7532685362
 C         -5.8871701752       -0.0597223031        0.3993207459
 C         -6.7569424895       -0.3836040273       -0.6248859242
 C         -8.0877372145       -0.0111365048       -0.5172219978
 C         -8.5229699516        0.6779866565        0.6047414720
 C         -7.6382287074        0.9958339892        1.6248331405
 C         -6.3067204288        0.6253414636        1.5242325820
 H         -5.5849435209        0.8421918109        2.2945760403
 H         -7.9808463137        1.5292714819        2.4967927668
 H         -9.5588862892        0.9668445733        0.6864665341
 H         -8.7785605366       -0.2593847620       -1.3067833131
 H         -6.3751438258       -0.9274206532       -1.4739607447
 H         -4.2048693159        1.5146203669       -0.7762192238
 H         -2.7158699821        2.5678548278       -2.2378673129
 H         -0.4649829055        2.5661328195       -3.2495211609
 H          1.2426416458        0.9659216972       -2.4715705596
 H          1.2759781913       -1.5584798115       -1.4241409092
 C          0.6535419042       -1.7546850809        0.6109212390
 C         -0.1857725795       -2.9792962687        0.4070598131
 C          1.2621345426       -3.1145028399        0.7686061924
 H          1.5170751812       -3.4538076567        1.7613705120
 H          1.9513322406       -3.4403930703        0.0031936874
 H         -0.9331169459       -3.2192691351        1.1490339300
 H         -0.4857139412       -3.2164162500       -0.6028289556
 H          0.4906426041       -1.1716703015        1.5114829484
