  62
        -98.93719353
 C         -1.7260198170       -0.5759815817       -0.3289162874
 C         -2.8272684954       -1.2769411336        0.2181445327
 C         -4.1608518438       -0.7624853457       -0.1266144654
 C         -4.2592372405        0.3135795018       -0.9283668811
 C         -5.5390204338        1.0008997985       -1.3119763107
 C         -6.0366413619        1.8789918362       -0.1461157082
 C         -7.3592161297        1.4197955438        0.4682564957
 H         -7.4956362746        1.9717405311        1.4006731648
 H         -8.1761790559        1.6972654968       -0.2011783171
 C         -7.4770043378       -0.0804023867        0.7543256206
 H         -7.7124252542       -0.6124695225       -0.1685765900
 H         -8.3358802392       -0.2109598229        1.4160920054
 C         -6.2516052192       -0.7385123268        1.4016162428
 H         -5.6567596072        0.0008942622        1.9381992376
 H         -6.6050183008       -1.4598604958        2.1411994488
 C         -5.3455114305       -1.5086643781        0.4227119902
 H         -4.9154892744       -2.3671210958        0.9470446268
 H         -5.9475224488       -1.8968892760       -0.4034714368
 H         -6.1585048365        2.9068152879       -0.4913356491
 H         -5.2619764123        1.8970477838        0.6233958321
 H         -5.3266448888        1.6159039804       -2.1867603331
 H         -6.2884839572        0.2596945385       -1.5805138154
 O         -3.1771820515        0.9612122642       -1.4335827210
 C         -1.8854693557        0.5414699828       -1.1476063190
 O         -0.9948987068        1.2334784731       -1.6756565542
 H          1.9747600574        0.3166888365       -0.7574019242
 C          1.5775422528        0.6199854190        0.1963145477
 C          0.4328156401        0.0297181663        0.7067315293
 C         -0.0609334620        0.4743754135        1.9319667444
 C          0.5658144136        1.4943260551        2.6191476060
 C          1.7040309529        2.0891950807        2.1025835612
 C          2.2051471959        1.6531019636        0.8821124175
 N          3.3460653225        2.2515375780        0.3373567471
 S          4.3818474631        1.4485241641       -0.6837580067
 O          5.6087784764        2.2150297230       -0.6123537664
 O          3.8115425582        1.3069398907       -1.9999272214
 C          4.6486332058       -0.1642933492        0.0343740315
 C          4.8000735227       -0.2871291541        1.4013034346
 C          5.0391779176       -1.5416837731        1.9387445998
 C          5.1314036437       -2.6460961476        1.1058891001
 C          4.9861330512       -2.5057462059       -0.2650906891
 C          4.7413995930       -1.2539803950       -0.8069676220
 H          4.6148805358       -1.0983977197       -1.8665771380
 H          5.0593567989       -3.3649160146       -0.9124742424
 H          5.3180549686       -3.6213819242        1.5268746823
 H          5.1526634890       -1.6534206953        3.0050300627
 H          4.7294371774        0.5855948896        2.0292675245
 H          3.8110750015        2.9325651692        0.9172964985
 H          2.1924536195        2.8931835418        2.6317076487
 H          0.1688620885        1.8305326822        3.5650927233
 H         -0.9532957689        0.0113550023        2.3304615550
 C         -0.3212868068       -1.0605015092       -0.0108715373
 H         -0.4564579977       -1.9000719196        0.6863619582
 C          0.3637983870       -1.5729214986       -1.2585687925
 C          1.4719879224       -2.5747736979       -1.1441686540
 C          0.1348570219       -2.9940622871       -1.6748911187
 H          0.0414908667       -3.2138480166       -2.7278614716
 H         -0.5017793768       -3.5979731328       -1.0450073122
 H          2.2975763951       -2.5041459289       -1.8351558219
 H          1.7530735391       -2.8983817718       -0.1535183343
 H          0.4276125671       -0.8270373234       -2.0433485444
 O         -2.6998878962       -2.2863017405        0.9622739010
