  62
        -98.94488192
 C          2.2049367071        0.9758615178        0.5122544434
 C          2.3237833105        0.1275099482       -0.6153180002
 C          3.1282368202       -1.0875678919       -0.4184755871
 C          3.6500478414       -1.3452574285        0.7946750570
 C          4.5339402400       -2.5141264971        1.1183103012
 C          6.0150777603       -2.1603444354        0.9227381731
 C          6.3193909056       -1.4932392276       -0.4186105484
 H          5.8326559886       -0.5157996798       -0.4491328968
 H          7.3965387143       -1.3176409074       -0.4570051754
 C          5.8906903437       -2.3099559124       -1.6456863147
 H          6.6998844779       -2.2918369233       -2.3786756802
 H          5.7340428449       -3.3512472521       -1.3618389101
 C          4.6392047264       -1.7847556203       -2.3518140118
 H          4.5519745903       -2.2948688415       -3.3147590003
 H          4.7540500368       -0.7173224668       -2.5561408016
 C          3.3155489106       -1.9912672069       -1.6043134607
 H          2.5002858657       -1.7514848835       -2.2938086403
 H          3.2166446619       -3.0387635066       -1.3112836424
 H          6.3155207118       -1.4774779330        1.7207375152
 H          6.6030197012       -3.0749226348        1.0185051674
 H          4.3699442806       -2.7916813975        2.1610290340
 H          4.2624409529       -3.3547824879        0.4826092560
 O          3.4651671972       -0.5344738094        1.8683277777
 C          2.7481952493        0.6463217163        1.7530312043
 O          2.6566884233        1.2984822227        2.8135218787
 H         -0.1700487504        0.4511837385        1.4891619405
 C         -0.6837155928        0.9845060119        0.6974853457
 C         -0.0051041144        1.9814241124        0.0070325874
 C         -0.6745088259        2.6579870836       -1.0036654663
 C         -1.9818025756        2.3293824893       -1.3191917784
 C         -2.6506220228        1.3326766241       -0.6333137531
 C         -1.9921537850        0.6525704552        0.3831177982
 N         -2.6674222682       -0.3514766569        1.1001716269
 S         -3.4538244953       -1.5562167270        0.2320051508
 O         -3.4995299757       -2.6927091904        1.1269062965
 O         -2.8389137786       -1.7750295977       -1.0564919918
 C         -5.1032606909       -0.9169917874        0.0251470236
 C         -5.8208873481       -0.5897937090        1.1590662963
 C         -7.1062536109       -0.0920546912        1.0169685096
 C         -7.6502642485        0.0663941612       -0.2490888454
 C         -6.9185683017       -0.2710272014       -1.3774260478
 C         -5.6316290715       -0.7686548742       -1.2422463601
 H         -5.0232697730       -1.0402527027       -2.0904793870
 H         -7.3432557728       -0.1482146222       -2.3607890453
 H         -8.6507144591        0.4546506695       -0.3570287125
 H         -7.6784530670        0.1706337528        1.8921442186
 H         -5.3627693973       -0.7327841013        2.1234785204
 H         -2.1142245507       -0.7579454398        1.8409536801
 H         -3.6664014633        1.0710613976       -0.8800615912
 H         -2.4873341497        2.8581359292       -2.1127626381
 H         -0.1699287073        3.4355345643       -1.5528823929
 C          1.4227938983        2.2727151133        0.4027222529
 H          1.4124851875        2.7077258125        1.4130426867
 C          2.1292925061        3.2301431306       -0.5341205443
 C          1.9841838789        4.7103301354       -0.3523098264
 C          3.2784104729        4.0366601385       -0.0110995605
 H          4.1311226152        4.1969561257       -0.6537138624
 H          3.5352563104        3.9145448649        1.0314150838
 H          1.9512319903        5.3369521587       -1.2307498056
 H          1.3640063308        5.0556293812        0.4608793217
 H          2.2091027354        2.8408388010       -1.5426266473
 O          1.7908372068        0.3723164651       -1.7286909883
