  62
        -98.94293687
 C         -1.9866256848       -1.0400816467        0.3933102140
 C         -2.5952271860        0.0057119170        1.1361060983
 C         -4.0184425588        0.2463009398        0.8781520820
 C         -4.6741399267       -0.5284046770       -0.0046050250
 C         -6.1338561164       -0.4334466352       -0.3567112229
 C         -6.4526245267        0.6239759237       -1.4223431463
 C         -6.3561933201        2.0744855427       -0.9479087933
 H         -6.8138111896        2.6956882382       -1.7203900159
 H         -6.9459605150        2.1986537292       -0.0391628186
 C         -4.9226469257        2.5670917827       -0.7045418674
 H         -4.2163147836        1.8940868841       -1.1963843429
 H         -4.7934873493        3.5521690856       -1.1586312101
 C         -4.5371273712        2.6952375434        0.7693681684
 H         -3.4926191781        3.0137099596        0.8240169375
 H         -5.1488159919        3.4665848022        1.2428751698
 C         -4.6789461158        1.3971344021        1.5749536399
 H         -5.7315914605        1.1794729525        1.7554799296
 H         -4.1791427773        1.5345997329        2.5371095316
 H         -5.7851925686        0.4742554764       -2.2740406887
 H         -7.4742569298        0.4436280624       -1.7645229659
 H         -6.7147294679       -0.2308830365        0.5435757755
 H         -6.4235961497       -1.4120826868       -0.7452776058
 O         -4.0635582300       -1.5337191115       -0.6813168261
 C         -2.7102881470       -1.8035768449       -0.5236904511
 O         -2.3078477146       -2.7360833032       -1.2452658678
 O         -1.9772690202        0.6995563498        1.9883846605
 C         -0.5088081748       -1.2877221370        0.6497308959
 C          0.3410812737       -0.6355084906       -0.4148967438
 C          0.3284471561       -1.0810376138       -1.7334966911
 C          1.1044350669       -0.4549750489       -2.6910316875
 C          1.9202280305        0.6110136572       -2.3528439203
 C          1.9405914649        1.0641609270       -1.0399306916
 C          1.1487366210        0.4431119938       -0.0827255086
 H          1.1634149825        0.8183800316        0.9298117310
 N          2.7593755984        2.1463615278       -0.6644636960
 S          3.8444935377        1.9296409565        0.5920465265
 O          3.1372329694        1.7580520110        1.8342427154
 O          4.7377570015        3.0633325568        0.5094051209
 C          4.7152484324        0.4342549819        0.1598888143
 C          4.1816006707       -0.7849186426        0.5266569208
 C          4.8173202017       -1.9452455009        0.1145595616
 C          5.9701752660       -1.8669377479       -0.6514725216
 C          6.4969448472       -0.6344597955       -1.0075609939
 C          5.8616057857        0.5290058392       -0.6049368827
 H          6.2381796214        1.5077424359       -0.8549394184
 H          7.3961459798       -0.5774062968       -1.5995918142
 H          6.4612123841       -2.7726413675       -0.9706672495
 H          4.4054881485       -2.9023619868        0.3915699594
 H          3.2857120787       -0.8069913257        1.1248191884
 H          3.2254066162        2.5919698273       -1.4424710601
 H          2.5290786537        1.0960179742       -3.1009260299
 H          1.0794769442       -0.8054442665       -3.7116683915
 H         -0.3132810039       -1.9054107203       -2.0027988976
 H         -0.2980167354       -0.7763503010        1.5994191438
 C         -0.1640621523       -2.7548827218        0.8112199774
 C          1.0295273834       -3.1375734330        1.6316212147
 C         -0.3520759875       -3.4042474286        2.1478925788
 H         -0.7075911266       -4.4230775883        2.1798461245
 H         -0.7228320283       -2.7880688156        2.9545206949
 H          1.6272442409       -3.9766376079        1.3110063429
 H          1.5935893940       -2.3437948676        2.0988077371
 H         -0.3891439148       -3.3519047752       -0.0622858444
