  62
        -98.94267194
 C         -1.5522760747       -1.4028302909       -0.2729645497
 C         -0.4421409191       -1.7176886707       -1.0860983066
 C          0.6589768463       -2.4620951894       -0.4508277183
 C          0.5783355977       -2.7592992651        0.8596751849
 C          1.5217560151       -3.5073337459        1.7792917033
 C          2.8932477262       -3.9566604868        1.2859571971
 C          3.9007906976       -2.8203995632        1.1044057040
 H          4.2083390274       -2.4752569897        2.0949635408
 H          4.7843340834       -3.2189682454        0.6011308453
 C          3.3994237456       -1.5995308138        0.3358524581
 H          2.5439691067       -1.1557212767        0.8521096982
 H          4.1989189835       -0.8536590595        0.3468366370
 C          3.0281177403       -1.8524580358       -1.1228506654
 H          3.8872052287       -2.2684123171       -1.6533951714
 H          2.7882256024       -0.8852599107       -1.5735909427
 C          1.8255200995       -2.7810813917       -1.3431188220
 H          2.1130266609       -3.8249801798       -1.2446275001
 H          1.4708269366       -2.6323386355       -2.3675168469
 H          2.7894234216       -4.5359864760        0.3731374997
 H          3.2944441935       -4.6328300002        2.0457789610
 H          1.6468770750       -2.8689781565        2.6605690581
 H          0.9638838942       -4.3883451905        2.1156201258
 O         -0.5093536881       -2.4167152856        1.6111258782
 C         -1.5765781979       -1.7128800727        1.0852681609
 O         -2.4732026343       -1.4446363761        1.9090871283
 O         -0.3713778605       -1.3914909747       -2.3031807050
 C         -2.6924106784       -0.5907897641       -0.8605696886
 C         -2.7512975525        0.7429639852       -0.1571453420
 C         -3.9259106677        1.3355253652        0.2853759700
 C         -3.8842411106        2.5378874137        0.9714428354
 C         -2.6804533621        3.1615722329        1.2413394991
 C         -1.4998093896        2.5838839483        0.7853100428
 C         -1.5485614971        1.4022487564        0.0667318307
 H         -0.6297813629        0.9509607371       -0.2784312139
 N         -0.2591544295        3.1959244367        1.0173137477
 S          1.1518083910        2.3159299671        1.1867889598
 O          0.9133040224        0.9637478478        1.6377174796
 O          1.9873930708        3.1256411848        2.0504118344
 C          1.8917187445        2.2953995179       -0.4355076738
 C          1.1950965398        2.6771501756       -1.5633920303
 C          1.8353398615        2.6257036888       -2.7929272819
 C          3.1512857031        2.2002448462       -2.8753617179
 C          3.8417624356        1.8301218503       -1.7313710096
 C          3.2076060426        1.8796556956       -0.5009231896
 H          3.7051555413        1.6072275990        0.4160421799
 H          4.8666247036        1.5011662886       -1.7941061455
 H          3.6416870210        2.1574372755       -3.8349755902
 H          1.2993844994        2.9151797833       -3.6825760828
 H          0.1717476374        3.0040586892       -1.4799239265
 H         -0.2773840327        3.9921508315        1.6364496288
 H         -2.6485230194        4.0831371617        1.8021936729
 H         -4.8028785816        2.9859571557        1.3187208344
 H         -4.8717894004        0.8504070733        0.1085845975
 H         -2.4183383766       -0.4180991058       -1.9121911741
 C         -3.9936410202       -1.3618879140       -0.8124474785
 C         -5.0565807641       -1.1167944077       -1.8405078956
 C         -4.2660110191       -2.3891787071       -1.8688844928
 H         -4.7524206647       -3.3085625182       -1.5796202792
 H         -3.5214682058       -2.5139986578       -2.6414776624
 H         -6.0906849579       -1.1648994497       -1.5342579378
 H         -4.8545230669       -0.3793310382       -2.6023435335
 H         -4.3009970993       -1.5929511065        0.2012997074
