  62
        -98.94379153
 C         -1.4513416275       -0.9384425462       -0.4906325083
 C         -2.5205426289       -1.1104251459        0.4254343908
 C         -3.4157381373        0.0364814686        0.6166989222
 C         -3.1631955820        1.1796913730       -0.0459263641
 C         -4.0099794573        2.4170626788        0.0227949873
 C         -5.0904599837        2.4162277165       -1.0676064851
 C         -5.8881345139        1.1143723764       -1.1444012827
 H         -6.6399420261        1.2393529711       -1.9265911842
 H         -5.2229969912        0.3082793885       -1.4621666446
 C         -6.5764982815        0.7136129600        0.1677708576
 H         -7.5991030774        0.4013868235       -0.0541519605
 H         -6.6379628977        1.5761838062        0.8322671461
 C         -5.9065664331       -0.4468196615        0.9060053823
 H         -6.5864526293       -0.7881347118        1.6911316243
 H         -5.7566887546       -1.2817970160        0.2170606579
 C         -4.5629689805       -0.1272022920        1.5737120091
 H         -4.6660490729        0.7584935869        2.2046132334
 H         -4.2988483944       -0.9747045679        2.2132636029
 H         -4.6068230978        2.5800004380       -2.0333835624
 H         -5.7686323497        3.2510144461       -0.8813840512
 H         -4.4708399999        2.4790243234        1.0069873832
 H         -3.3607247802        3.2833986428       -0.1172603762
 O         -2.1208731466        1.3193757059       -0.8995347839
 C         -1.2306294874        0.2775474926       -1.1398738690
 O         -0.3288199098        0.5753200051       -1.9436732425
 H          0.8168356453       -0.0046471674        0.3560800239
 C          1.1432572593       -0.9337084546        0.7928389199
 C          0.5536938935       -2.1246909490        0.3950577674
 C          0.9668539039       -3.3083316377        0.9961539347
 C          1.9544591065       -3.2946867662        1.9651505855
 C          2.5392319698       -2.1052198271        2.3592666803
 C          2.1195654459       -0.9120394286        1.7782700386
 N          2.6534169582        0.3052151155        2.2071601742
 S          2.6249943897        1.7255804639        1.3367628008
 O          3.4187681366        2.6271635273        2.1458550238
 O          1.2683956782        2.1371510571        1.0781239534
 C          3.5150198466        1.3786284769       -0.1687466626
 C          4.8885868405        1.2551930730       -0.0625905281
 C          5.6306131402        0.9770246459       -1.1973358785
 C          4.9894333197        0.8301406672       -2.4188541819
 C          3.6134061446        0.9608334234       -2.5082210454
 C          2.8612237688        1.2339697842       -1.3743425814
 H          1.7870897704        1.3240250562       -1.4285816994
 H          3.1077651101        0.8500481313       -3.4539813795
 H          5.5645392259        0.6154104822       -3.3057092206
 H          6.7018716780        0.8779852881       -1.1283238234
 H          5.3486868530        1.3995473251        0.9013443889
 H          3.4268759774        0.2508536079        2.8509180327
 H          3.2993445179       -2.0926547509        3.1249536456
 H          2.2680667716       -4.2195606880        2.4247286322
 H          0.4937288482       -4.2382896967        0.7174670819
 C         -0.5224018240       -2.1266211918       -0.6637664291
 H         -1.1544479280       -3.0106773939       -0.4785105431
 C          0.0445022187       -2.2583943635       -2.0700545276
 C          1.4684661078       -1.9493598429       -2.4097283046
 C          0.9940475046       -3.3695406708       -2.4088323531
 H          0.8741413222       -3.8757861957       -3.3545884805
 H          1.3292688866       -4.0060613291       -1.6048718046
 H          2.1205633360       -1.6238773409       -1.6137220038
 H          1.6619686498       -1.4636040012       -3.3530195693
 H         -0.6932051894       -2.0042978074       -2.8242242317
 O         -2.7177238064       -2.1871602712        1.0524571831
