  62
        -98.93344624
 C         -2.2301934208       -0.9555623748        0.5302262346
 C         -2.3886174850        0.0189475412       -0.4846185567
 C         -3.3461507140        1.1053723744       -0.1995984236
 C         -3.9474110559        1.1648628477        0.9998207928
 C         -4.9168312250        2.1983906065        1.5167551305
 C         -6.0236401995        2.6709901541        0.5639577713
 C         -6.5351925474        1.6063314511       -0.4173818954
 H         -6.1630891854        0.6215927869       -0.1292603848
 H         -7.6248744232        1.5699939802       -0.3642341477
 C         -6.1454234097        1.8953273831       -1.8691049872
 H         -6.8192016895        1.3439538622       -2.5292789213
 H         -6.2936555398        2.9593516192       -2.0658230491
 C         -4.7180844907        1.5091984127       -2.2553290271
 H         -4.5354287251        1.8687572798       -3.2707023233
 H         -4.6245988072        0.4199983253       -2.2802536474
 C         -3.6127448501        2.0519166045       -1.3343744430
 H         -2.6850933564        2.0980720749       -1.9113691292
 H         -3.8511746062        3.0512755145       -0.9787882045
 H         -6.8490399515        3.0171930459        1.1883376514
 H         -5.6744242094        3.5345314887       -0.0003671577
 H         -5.3661837980        1.7462623227        2.4043639508
 H         -4.3414632756        3.0653689955        1.8547057729
 O         -3.7001867661        0.2488171384        1.9805713421
 C         -2.8521962865       -0.8248407445        1.7727096950
 O         -2.7249954169       -1.5746401098        2.7625833718
 H          0.2807233362       -0.3138267158        1.4127733596
 C          0.7236609317       -0.7250246030        0.5121723937
 C          0.0262019768       -1.6962241607       -0.1972810167
 C          0.6059181695       -2.2182588711       -1.3452485386
 C          1.8446165535       -1.7696450865       -1.7704230221
 C          2.5296881738       -0.7975944727       -1.0659472515
 C          1.9595650920       -0.2684587640        0.0847595178
 N          2.6512905354        0.7284227354        0.8033870197
 S          4.1672895525        0.3077537431        1.4000806783
 O          4.2482715744       -1.1087088049        1.6759964004
 O          4.3948522247        1.1942304949        2.5209006081
 C          5.2857510844        0.7365440349        0.0833215902
 C          5.3322922305        2.0537621983       -0.3295380636
 C          6.2026420874        2.4044096778       -1.3492267886
 C          7.0087802339        1.4383000027       -1.9330563719
 C          6.9526641331        0.1208834957       -1.5044342429
 C          6.0833173925       -0.2369600465       -0.4856349179
 H          6.0008459364       -1.2488840685       -0.1226351260
 H          7.5804066661       -0.6284379043       -1.9592340873
 H          7.6851355753        1.7141794591       -2.7266286792
 H          6.2492756149        3.4278065701       -1.6851533784
 H          4.6924174965        2.7731864110        0.1537581086
 H          2.0993674274        1.1403727741        1.5425085876
 H          3.4902400426       -0.4400971658       -1.3993695471
 H          2.2800761669       -2.1802377405       -2.6685952461
 H          0.0802780531       -2.9629658247       -1.9196125026
 C         -1.3048186411       -2.1467044649        0.3549229694
 H         -1.1253656564       -2.5164448820        1.3790050369
 C         -1.9204086528       -3.3043437613       -0.4176956097
 C         -3.4055974410       -3.5042890314       -0.4564725354
 C         -2.6708142446       -3.1055806797       -1.6990633577
 H         -2.5530556308       -3.8421224488       -2.4804439849
 H         -2.7766031263       -2.0961639058       -2.0625794571
 H         -4.0230448816       -2.7663117538        0.0355351507
 H         -3.7888373405       -4.5109911930       -0.3820350136
 H         -1.3200467862       -4.2055622441       -0.3384618051
 O         -1.7657054880        0.0017345133       -1.5759130645
