  62
        -98.94036354
 C         -1.9264860304       -1.3596043985       -0.5144352612
 C         -0.8670448204       -1.4913144789       -1.4456424612
 C          0.2151555090       -2.4316686797       -1.1137383015
 C          0.1528275485       -3.0988959400        0.0513867083
 C          1.1733001079       -4.0413025509        0.6286723280
 C          2.1580348483       -3.2833461618        1.5369511383
 C          3.3910930587       -2.7334985924        0.8227730885
 H          3.9529417291       -2.1477692130        1.5542689087
 H          4.0258088582       -3.5623464727        0.5007284183
 C          3.0767747693       -1.8416090618       -0.3802720912
 H          2.2401183097       -1.1902929813       -0.1218030010
 H          3.9399088397       -1.1976730323       -0.5623702110
 C          2.7632467688       -2.6343304512       -1.6577432015
 H          3.0415770282       -3.6771948514       -1.5062856618
 H          3.3855059791       -2.2621727713       -2.4740398613
 C          1.3086544489       -2.5550954301       -2.1402965115
 H          1.1856127795       -1.6760236698       -2.7803407312
 H          1.0954513084       -3.4285593197       -2.7663473518
 H          1.6192044889       -2.4555640316        2.0074070386
 H          2.4922749079       -3.9536106523        2.3319967981
 H          0.6210025574       -4.7610129807        1.2367734678
 H          1.6964716776       -4.5764419810       -0.1588641021
 O         -0.8855724614       -2.9555998196        0.9157921683
 C         -1.9279130308       -2.0672564489        0.6882110586
 O         -2.7654648209       -2.0397509187        1.6085660086
 O         -0.8264380500       -0.8284055686       -2.5194054610
 C         -2.9652679297       -0.3012032377       -0.8517152409
 C         -2.3642518088        1.0598245918       -0.5941245304
 C         -2.5481496081        2.1222442322       -1.4710963101
 C         -1.9356549573        3.3412000717       -1.2368231297
 C         -1.0930082072        3.5096816708       -0.1521326796
 C         -0.8958431279        2.4498558404        0.7248948501
 C         -1.5621282287        1.2513265809        0.5214151797
 H         -1.4071352392        0.4414233706        1.2181693194
 N          0.0073242721        2.5368938795        1.8051461601
 S          1.3048920614        1.4709194387        1.7593049798
 O          0.8341134605        0.1120743190        1.8075073594
 O          2.1696859117        1.8915798978        2.8402528400
 C          2.0976972417        1.8070171887        0.1969721699
 C          3.2128882322        2.6221319880        0.1765992702
 C          3.8012018424        2.9255631080       -1.0405064297
 C          3.2617698221        2.4182926887       -2.2133068899
 C          2.1395754416        1.6056134294       -2.1764959501
 C          1.5486067014        1.2955333894       -0.9619312902
 H          0.6768240409        0.6622900699       -0.9128419905
 H          1.7080798914        1.2052322800       -3.0802081603
 H          3.7175947123        2.6554718487       -3.1615684898
 H          4.6752974928        3.5559511374       -1.0708854395
 H          3.5994508924        2.9891090874        1.1137126403
 H          0.3541521627        3.4719233692        1.9725211204
 H         -0.5826075366        4.4470011204        0.0098993907
 H         -2.0907720168        4.1598513520       -1.9225043094
 H         -3.1562144982        1.9817533129       -2.3523474901
 H         -3.1290092197       -0.3817381073       -1.9391615109
 C         -4.3102318498       -0.4913278971       -0.1721864510
 C         -4.7354970993        0.3067480228        1.0198793193
 C         -5.3823005591        0.5492298236       -0.3090586207
 H         -6.4000774293        0.2209109643       -0.4548106808
 H         -5.1326196385        1.4641752836       -0.8239528104
 H         -5.2905950997       -0.2041506171        1.7913681991
 H         -4.0516841989        1.0495661522        1.4018168795
 H         -4.6307375505       -1.5272321869       -0.1926751213
