  62
        -98.94795367
 C         -1.2468635007       -0.8090649507        0.4245618598
 C         -2.0725495508       -0.6064428405       -0.7070118101
 C         -2.9982971806        0.5300312896       -0.6223818201
 C         -2.9726371104        1.3376435896        0.4531663800
 C         -3.8310347801        2.5547269597        0.6681881700
 C         -5.2231060002        2.2466286900        1.2368298701
 C         -6.1979299103        1.5971297502        0.2537752901
 H         -7.1883878903        1.6382179503        0.7112591901
 H         -6.2366995603        2.1895340602       -0.6608930299
 C         -5.8723983206        0.1367511601       -0.0892806500
 H         -6.7847341107       -0.4614481997       -0.0367448499
 H         -5.1810450006       -0.2663615000        0.6541892600
 C         -5.2749517107       -0.0691333899       -1.4812378100
 H         -5.0512451409       -1.1316923200       -1.6046392100
 H         -6.0083122407        0.2114181202       -2.2404558200
 C         -3.9831031306        0.7186237198       -1.7365428500
 H         -3.5223039807        0.3388381098       -2.6519424901
 H         -4.2065716604        1.7768602599       -1.8723151000
 H         -5.1076282103        1.6054914499        2.1137653401
 H         -5.6539039500        3.1931431600        1.5715088701
 H         -3.9307407501        3.1018040898       -0.2699741699
 H         -3.2973617300        3.1876705896        1.3809136800
 O         -2.1181839504        1.1454521194        1.4932674499
 C         -1.2414375805        0.0730935593        1.5043642498
 O         -0.5122652605        0.0158539391        2.5168916598
 O         -2.0394418909       -1.3311072605       -1.7357102002
 C         -0.2577199509       -1.9590978509        0.4475736097
 C          0.7785780190       -1.7816510210       -0.6373029803
 C          1.3087910188       -2.8357415511       -1.3707254904
 C          2.2817701788       -2.6004802212       -2.3271146104
 C          2.7634123890       -1.3242002713       -2.5562579404
 C          2.2418341393       -0.2636945612       -1.8240089603
 C          1.2558599293       -0.5015326611       -0.8809396903
 H          0.8383124494        0.3337199890       -0.3405730902
 N          2.6952760895        1.0497695587       -2.0163854903
 S          2.7935732597        2.0922472786       -0.7129419603
 O          1.4802699898        2.5418274989       -0.3228219702
 O          3.7048400099        3.1257406085       -1.1579493503
 C          3.5644114996        1.1341861085        0.5798633597
 C          4.9007299795        0.8203887282        0.4151359496
 C          5.5327231694        0.0406667181        1.3687041996
 C          4.8193539194       -0.4169222718        2.4667732096
 C          3.4818283795       -0.0896671816        2.6203385296
 C          2.8435799396        0.6936985085        1.6703810497
 H          1.8013234996        0.9535054787        1.7747569697
 H          2.9173852594       -0.4394503715        3.4702421596
 H          5.3075558393       -1.0288181519        3.2087587395
 H          6.5748795194       -0.2096953921        1.2534405995
 H          5.4229880496        1.2064238082       -0.4451254704
 H          3.4827999195        1.1459661386       -2.6401075603
 H          3.5254165790       -1.1456012114       -3.2990280104
 H          2.6781144387       -3.4263156913       -2.8979455704
 H          0.9549520187       -3.8391041210       -1.1995219904
 H          0.2641525291       -1.8896262110        1.4143985797
 C         -0.9819106812       -3.2878356707        0.3790983097
 C         -0.4160743814       -4.4950858309        1.0629692996
 C         -1.6320005912       -3.8197672407        1.6199692597
 H         -2.5874638313       -4.3145005905        1.5310115897
 H         -1.5263771811       -3.2358399307        2.5231540797
 H         -0.5395286715       -5.4588457708        0.5923372996
 H          0.5148634387       -4.3785178110        1.5968363796
 H         -1.5061318212       -3.4264929906       -0.5591467403
