  62
        -98.93432821
 C         -2.4138003882       -1.1933589880        0.0756130144
 C         -3.3213836237       -0.5444814219        0.9476693339
 C         -4.1657055101        0.5119922078        0.3628341527
 C         -4.0122440295        0.8218823741       -0.9360328740
 C         -4.7255486230        1.8930649310       -1.7138473780
 C         -3.9072763706        3.1954044870       -1.7210548123
 C         -4.1578526683        4.1208967142       -0.5309051073
 H         -3.4267119227        4.9305710789       -0.5889211761
 H         -5.1495171003        4.5679508834       -0.6263726563
 C         -4.0512454270        3.4608261663        0.8464689808
 H         -3.1830101850        2.7992491621        0.8717110888
 H         -3.8771432560        4.2480445128        1.5828208538
 C         -5.3144429388        2.6814452216        1.2420851226
 H         -6.1208954004        2.9390350272        0.5558326043
 H         -5.6392941676        3.0000118039        2.2348022162
 C         -5.1524786255        1.1550727886        1.2987645248
 H         -4.8160410881        0.8620778444        2.2985220396
 H         -6.1314092201        0.6869471077        1.1501753396
 H         -2.8488411341        2.9251121948       -1.7618246545
 H         -4.1378836322        3.7490759236       -2.6333689423
 H         -4.8076390592        1.5291474579       -2.7401099696
 H         -5.7237715117        2.0569283982       -1.3190039455
 O         -3.0975258485        0.2036403856       -1.7306061349
 C         -2.2689095604       -0.8026080687       -1.2565875128
 O         -1.4737036886       -1.2416865775       -2.1059605256
 O         -3.4138087083       -0.8269921204        2.1736779759
 C         -1.5251887262       -2.2766644977        0.6597257202
 C         -0.0871841792       -2.0318787544        0.2745648193
 C          0.6989644055       -2.9505607948       -0.4066408506
 C          2.0124138737       -2.6485066648       -0.7226702976
 C          2.5683560466       -1.4327811866       -0.3714960899
 C          1.7931773703       -0.5074212960        0.3158223687
 C          0.4817170522       -0.8171972871        0.6398241469
 H         -0.1233616451       -0.0948863636        1.1758275281
 N          2.3403707839        0.7403697620        0.6605681330
 S          3.8432230591        0.7855966094        1.4055845102
 O          4.0835212061       -0.4058290949        2.1864013060
 O          3.8671368542        2.0404002683        2.1254866292
 C          4.9938479657        0.8732495166        0.0503166911
 C          6.0178164833       -0.0484487485       -0.0460002932
 C          6.9072079457        0.0467914191       -1.1051112044
 C          6.7581537207        1.0570512985       -2.0428085883
 C          5.7258679355        1.9765777982       -1.9299467204
 C          4.8341656888        1.8876575082       -0.8731166444
 H          4.0207355739        2.5829321774       -0.7481587380
 H          5.6125913599        2.7605889544       -2.6613350253
 H          7.4503558881        1.1286837362       -2.8668262595
 H          7.7104736817       -0.6667243979       -1.1946606014
 H          6.0909757836       -0.8202184066        0.7036235810
 H          1.6910348672        1.3564219884        1.1273600688
 H          3.5880012575       -1.1928492518       -0.6246743981
 H          2.6101972207       -3.3693274664       -1.2593580385
 H          0.2783200145       -3.8947658738       -0.7103044978
 H         -1.6063334986       -2.1340466612        1.7511258213
 C         -1.9957303107       -3.6956489009        0.3789879187
 C         -3.4441424269       -3.9948290397        0.1360447479
 C         -2.4523853599       -4.1403696850       -0.9769245747
 H         -2.1928656128       -5.1373336123       -1.3020334532
 H         -2.4523462033       -3.4086878730       -1.7690426128
 H         -3.8638231235       -4.8876386298        0.5748158881
 H         -4.1295308902       -3.1601289748        0.1051100089
 H         -1.4508362100       -4.4242155792        0.9718052185
