  62
        -98.94375199
 C         -1.7272293912       -0.4368440352        0.5909395760
 C         -2.9479055367       -0.3523369113        1.3018739013
 C         -4.1596714892       -0.6380186229        0.5257546608
 C         -4.0562279969       -0.9744395322       -0.7730694851
 C         -5.1983462496       -1.3128450730       -1.6925471974
 C         -5.8777891245       -0.0877319396       -2.3196804356
 C         -6.7426264790        0.7364887301       -1.3651255962
 H         -7.3253306756        1.4280933452       -1.9769088494
 H         -7.4481977924        0.0791761834       -0.8559904146
 C         -5.9486634125        1.5440246693       -0.3287496572
 H         -4.9063067912        1.6200750086       -0.6473093151
 H         -6.3427503657        2.5617174953       -0.2799551098
 C         -5.9927253022        0.9730154835        1.0887419480
 H         -7.0158673480        1.0142606804        1.4689339833
 H         -5.3700898372        1.6012564909        1.7310966753
 C         -5.4859705422       -0.4707369401        1.2039118565
 H         -6.2183159251       -1.1609871064        0.7859297230
 H         -5.3497796104       -0.7027177614        2.2630743073
 H         -6.5135797422       -0.4477858528       -3.1317965009
 H         -5.1083755187        0.5517432297       -2.7585052545
 H         -4.7797116780       -1.9223851078       -2.4961360262
 H         -5.9388900679       -1.9060957012       -1.1555545274
 O         -2.8611249235       -1.0650856569       -1.4144109966
 C         -1.6711175317       -0.7769593360       -0.7608091858
 O         -0.6576565139       -0.8663897866       -1.4781673962
 O         -3.0210857143       -0.0495415001        2.5233765546
 C         -0.4304364852       -0.1264388535        1.3162718918
 C          0.2602388647        1.0378383089        0.6508864381
 C         -0.4625259196        2.2074162219        0.4255371065
 C          0.1232059997        3.2899956517       -0.1997329071
 C          1.4447844059        3.2336279766       -0.6077938530
 C          2.1774618485        2.0754132360       -0.3815665449
 C          1.5847156821        0.9889231789        0.2487831315
 H          2.1699385163        0.1021459002        0.4202358059
 N          3.5053159727        1.9769385939       -0.8137730141
 S          4.6325783243        1.0752831298        0.0215782283
 O          4.4596850399        1.1930629571        1.4508474506
 O          5.9068168511        1.5261079222       -0.4970437101
 C          4.3588572918       -0.6067533831       -0.4933717795
 C          4.5299812199       -1.6197770129        0.4294040290
 C          4.3447787147       -2.9328883076        0.0272118475
 C          3.9959568332       -3.2086190609       -1.2857767222
 C          3.8336189508       -2.1803022460       -2.2014218604
 C          4.0193792344       -0.8653641339       -1.8061087434
 H          3.8921255833       -0.0441208999       -2.4914309964
 H          3.5570072177       -2.3981623769       -3.2204260804
 H          3.8471197564       -4.2307549351       -1.5966771397
 H          4.4700983325       -3.7345537696        0.7377608622
 H          4.7921724252       -1.3576853246        1.4424155088
 H          3.8976540007        2.8133300937       -1.2189172005
 H          1.9029676322        4.0770313761       -1.1016044058
 H         -0.4510916941        4.1882856855       -0.3705988668
 H         -1.4952690051        2.2520148176        0.7442175086
 H         -0.7282807784        0.1857149321        2.3285534594
 C          0.4291394300       -1.3679925476        1.4229057404
 C          1.4216503996       -1.5039801601        2.5373248471
 C          0.1737697188       -2.3332926988        2.5398878996
 H          0.2562730282       -3.3902217881        2.3366495601
 H         -0.6074945640       -2.0831736236        3.2427565168
 H          2.3617533004       -1.9919931589        2.3303125815
 H          1.4976823181       -0.6895681017        3.2420487044
 H          0.6886130049       -1.7805099747        0.4540338796
