  62
        -98.93413277
 C         -2.3897167377       -1.3491456440        0.1545975430
 C         -2.2472048584        0.0468209100       -0.0435612450
 C         -3.3102661632        0.8997041058        0.5249527016
 C         -4.3329551355        0.3391847230        1.1904606162
 C         -5.4970828784        1.0114645712        1.8744208244
 C         -6.1676709540        2.1852329098        1.1480860864
 C         -6.1845778905        2.0769583924       -0.3836317219
 H         -5.8892769174        1.0724405567       -0.6914592585
 H         -7.2033133845        2.2405561054       -0.7396877348
 C         -5.2789669708        3.1055450630       -1.0653333398
 H         -5.6036048414        3.2283354959       -2.1014284541
 H         -5.4054189524        4.0691481406       -0.5670547759
 C         -3.7926079488        2.7514733318       -1.0963616236
 H         -3.2491353283        3.6092782009       -1.5002186441
 H         -3.6254779721        1.9169701101       -1.7830095618
 C         -3.1741709139        2.3716300719        0.2591949286
 H         -2.0997639961        2.5716038124        0.2081194393
 H         -3.5972077403        2.9663063148        1.0652674436
 H         -7.1919639928        2.2416629145        1.5203649473
 H         -5.6796587687        3.1164993780        1.4322674315
 H         -6.2279962472        0.2154516600        2.0362117563
 H         -5.1625089673        1.3457670683        2.8608726851
 O         -4.4248641805       -1.0090387510        1.3685073133
 C         -3.4653995583       -1.8744997230        0.8763690098
 O         -3.6792005821       -3.0737917424        1.1431607134
 H          0.5599668234       -1.0370652646       -1.7599704122
 C          0.8677545983       -1.2383444643       -0.7457670816
 C          0.0134727343       -1.9177668816        0.1070173640
 C          0.4146490496       -2.1362725921        1.4211818432
 C          1.6438232739       -1.6872195801        1.8665904578
 C          2.4900799684       -0.9981840597        1.0153790395
 C          2.0890447419       -0.7579204323       -0.2915954326
 N          2.9322811147       -0.0433066751       -1.1589208746
 S          3.6795344746        1.3479936105       -0.5910820099
 O          2.9165166711        1.9987987731        0.4481457449
 O          3.9583634018        2.1332336149       -1.7744033533
 C          5.2215706429        0.7482712241        0.0717824646
 C          5.6069706244        1.1058652124        1.3488753305
 C          6.8163215616        0.6393248849        1.8405136468
 C          7.6157885465       -0.1715375886        1.0498076355
 C          7.2161430386       -0.5193289801       -0.2320388623
 C          6.0090376771       -0.0552526360       -0.7295038002
 H          5.6638570946       -0.3003359657       -1.7199015761
 H          7.8405959532       -1.1499349627       -0.8441826350
 H          8.5556677543       -0.5342611829        1.4349366235
 H          7.1282567518        0.9096421806        2.8366149391
 H          4.9499609236        1.7337413454        1.9298698181
 H          2.5200847970        0.1245506065       -2.0657351728
 H          3.4412085545       -0.6274662898        1.3611033363
 H          1.9443200649       -1.8677627089        2.8875801154
 H         -0.2569397359       -2.6529964249        2.0934047322
 C         -1.3605155691       -2.3593903139       -0.3292082768
 H         -1.6056738694       -3.2882798377        0.2096410731
 C         -1.4372221881       -2.6886592761       -1.8127639740
 C         -2.7691615857       -2.8579580760       -2.4794587539
 C         -1.8841731701       -1.7091006561       -2.8539055019
 H         -1.3959997183       -1.7335371665       -3.8177209160
 H         -2.1600589630       -0.7172130373       -2.5332977649
 H         -2.8960585269       -3.6647145789       -3.1853431725
 H         -3.6483075626       -2.6536607884       -1.8852141003
 H         -0.6579548986       -3.3853153944       -2.1072031047
 O         -1.2906561374        0.5823201643       -0.6611387317
