  62
        -98.93656767
 C         -0.6284812104       -1.8902832795        0.3253851199
 C         -1.2289607504       -0.7438289694        0.8965594097
 C         -2.5123572502       -0.3065996192        0.3181053893
 C         -3.0209261099       -0.9861526692       -0.7254025808
 C         -4.3008723497       -0.7317224190       -1.4804281612
 C         -4.5847263993        0.7286071210       -1.8665079613
 C         -5.7516033195        1.3448393212       -1.0932032417
 H         -6.1616224092        2.1707551513       -1.6787441219
 H         -6.5386995196        0.5943063813       -0.9950627319
 C         -5.3966808598        1.8898790912        0.2890691384
 H         -4.8048595597        2.8002665411        0.1751590385
 H         -6.3303714799        2.1682429614        0.7834124681
 C         -4.6296442203        0.9260635611        1.1971606886
 H         -4.7930515805        1.2409608012        2.2299299586
 H         -5.0284243604       -0.0835118288        1.1073912385
 C         -3.1144138402        0.9200482309        0.9464099491
 H         -2.8320119799        1.7880098208        0.3444988692
 H         -2.5831760605        1.0297537108        1.8966118793
 H         -4.8350378090        0.7500288810       -2.9283425914
 H         -3.6843044993        1.3265723909       -1.7348335511
 H         -4.2269934295       -1.3471195290       -2.3797963712
 H         -5.1345959899       -1.1308283189       -0.8978603415
 O         -2.3994659599       -2.0787422993       -1.2533697506
 C         -1.1912882501       -2.5484581194       -0.7671852902
 O         -0.7449715801       -3.5342331495       -1.3834086201
 H          1.4805353099        0.1209427902        0.2792016505
 C          2.0101773300       -0.5958494199       -0.3317880693
 C          1.7646326697       -1.9527533798       -0.1533794293
 C          2.4450123799       -2.8652977000       -0.9480945591
 C          3.3443353302       -2.4217844101       -1.9025636188
 C          3.5950819305       -1.0722144001       -2.0689993388
 C          2.9220420204       -0.1506423200       -1.2736808590
 N          3.1379448706        1.2283285999       -1.4192297090
 S          3.2427003703        2.1877984700       -0.0494271790
 O          4.0001997906        3.3445797998       -0.4827980188
 O          3.7957361899        1.4563089199        1.0665443712
 C          1.5792289203        2.7126894402        0.2982683205
 C          0.8242387507        3.2333851703       -0.7340155997
 C         -0.4402824893        3.7244153005       -0.4540416901
 C         -0.9225098897        3.6922652406        0.8460558797
 C         -0.1551135501        3.1587346005        1.8688183900
 C          1.1094738499        2.6644577703        1.5947792404
 H          1.7347332596        2.2340585802        2.3607121306
 H         -0.5357659205        3.1192440206        2.8764289998
 H         -1.9022744498        4.0866695307        1.0669689294
 H         -1.0438544390        4.1341812905       -1.2485102303
 H          1.2360334910        3.2485141202       -1.7296101296
 H          3.8421960708        1.4774570798       -2.0987455688
 H          4.3024090407       -0.7303244103       -2.8095522886
 H          3.8622986603       -3.1388683502       -2.5214989686
 H          2.2592553297       -3.9200572599       -0.8316291491
 C          0.7198378394       -2.3399598697        0.8640494904
 H          0.8915961392       -1.7337103397        1.7648736004
 C          0.7363819591       -3.8019790597        1.2497220104
 C          1.8271865187       -4.3114181998        2.1424314608
 C          0.4281860386       -4.1872975296        2.6643251503
 H         -0.1389944716       -5.0889929495        2.8401509202
 H          0.2123667185       -3.3926365595        3.3635293402
 H          2.2230367886       -5.2993281198        1.9628852009
 H          2.5623494687       -3.5986014099        2.4853138110
 H          0.3708849992       -4.4552027296        0.4670081003
 O         -0.7145283406       -0.1072141794        1.8555105299
