  62
        -98.93719532
 C         -1.3927047453       -1.2545200410        0.0079930539
 C         -2.6559713299       -1.3205261330        0.6489814628
 C         -3.4385616601       -0.0747843656        0.7238939563
 C         -2.9149235981        1.0611470041        0.2273506426
 C         -3.4412625372        2.4812609027        0.2198689973
 C         -4.9083117457        2.7725304291        0.5253303185
 C         -5.8955387525        2.2535755995       -0.5194129577
 H         -6.9081180639        2.4327256958       -0.1511452588
 H         -5.7687506694        2.8336274365       -1.4370720643
 C         -5.7541523450        0.7779080127       -0.8844768918
 H         -6.5155229637        0.5446609861       -1.6339092158
 H         -4.7819938846        0.6070155113       -1.3514436694
 C         -5.9281384205       -0.2024711378        0.2741026080
 H         -6.8802848147       -0.0149789936        0.7743377525
 H         -5.9680748842       -1.2094575885       -0.1504859933
 C         -4.8079530003       -0.1886407992        1.3291513674
 H         -4.9689359008        0.5946733070        2.0661470233
 H         -4.8311771608       -1.1453692710        1.8591547262
 H         -5.0088792741        3.8607824499        0.5608170516
 H         -5.1694047162        2.4012745500        1.5119885416
 H         -2.8253039519        3.0288574479        0.9415598643
 H         -3.1953512244        2.8844677984       -0.7674288541
 O         -1.6827199812        1.0850765632       -0.3537672255
 C         -0.8973703185       -0.0502515325       -0.4963493438
 O          0.1775335280        0.1658173836       -1.0824695471
 H          1.7436291520       -1.8354080044       -1.3027038248
 C          1.8555920021       -1.8364476611       -0.2300283463
 C          0.7896161951       -2.2159765019        0.5708168022
 C          0.9516524176       -2.1999124423        1.9522661281
 C          2.1521658858       -1.8106499376        2.5175951762
 C          3.2026083863       -1.3974320877        1.7167354870
 C          3.0421977768       -1.3940106408        0.3373100167
 N          4.0864561181       -0.9217586365       -0.4854861210
 S          4.6173841756        0.6443792175       -0.2093019801
 O          5.3961941913        0.9891449829       -1.3781804670
 O          5.3227175829        0.6785379807        1.0489081219
 C          3.1645621626        1.6738329895       -0.1154475523
 C          2.5223020691        1.8312448396        1.0954817909
 C          1.3719146706        2.6007843481        1.1457848287
 C          0.8889424522        3.1995644131       -0.0063074885
 C          1.5487480007        3.0352578643       -1.2130590263
 C          2.6940178281        2.2600986433       -1.2719841609
 H          3.2338457249        2.1048582790       -2.1925224151
 H          1.1649889903        3.4955601748       -2.1094871318
 H         -0.0133758046        3.7896908912        0.0340365778
 H          0.8512998241        2.7223615410        2.0829729089
 H          2.9283270427        1.3555615456        1.9732995336
 H          3.8755437887       -1.0214789522       -1.4689919781
 H          4.1344355745       -1.0568990596        2.1388739635
 H          2.2682508486       -1.8144103378        3.5909566937
 H          0.1191745666       -2.4851410173        2.5804932300
 C         -0.5603181057       -2.5266274138       -0.0194039982
 H         -1.0882083971       -3.2125554111        0.6618063622
 C         -0.4792297200       -3.2303564176       -1.3649815626
 C         -1.7027203926       -3.3600091155       -2.2213683023
 C         -0.5517663094       -2.5190530606       -2.6813130704
 H          0.0595843183       -2.8905808531       -3.4913116057
 H         -0.6606573391       -1.4463981810       -2.6763531433
 H         -1.8908173204       -4.2988396860       -2.7200380654
 H         -2.5967409866       -2.8569498896       -1.8823978483
 H          0.1742249941       -4.0969639755       -1.3213070954
 O         -3.1136019596       -2.3818677729        1.1513469633
