  62
        -98.93706234
 C         -1.2580013318       -0.9339588543        0.1297948379
 C         -1.7714772402        0.1632325668        0.8642365847
 C         -2.8370795645        0.9497471833        0.2227564015
 C         -3.2052416811        0.6524988139       -1.0345620372
 C         -4.2314695368        1.3404305771       -1.8998427400
 C         -5.5595692248        1.7402576266       -1.2418852460
 C         -6.0425027856        0.8002659273       -0.1274544081
 H         -7.0790783867        0.5207260680       -0.3244112166
 H         -5.4517404482       -0.1173398340       -0.1303439757
 C         -5.9850884715        1.4414542986        1.2612711955
 H         -6.3542426353        2.4666898763        1.1879653022
 H         -6.6596214930        0.8978152321        1.9270316426
 C         -4.6078547633        1.4527015908        1.9237751485
 H         -4.3283650195        0.4364257993        2.2149274301
 H         -4.6812576878        2.0399232972        2.8422042310
 C         -3.4651988057        2.0213466222        1.0664430950
 H         -3.8025503424        2.8614347163        0.4638444727
 H         -2.6791626295        2.3729824464        1.7406096296
 H         -5.4781783501        2.7506963165       -0.8434867092
 H         -6.3061048339        1.7761221960       -2.0371239416
 H         -3.7645601366        2.2285885375       -2.3363551946
 H         -4.4235592740        0.6439261567       -2.7197323317
 O         -2.6227670503       -0.3570748562       -1.7400267579
 C         -1.6400483233       -1.1695154298       -1.1904725414
 O         -1.2076921691       -2.0347975677       -1.9743141941
 H          0.9985493106        0.2433125579       -0.4699480066
 C          1.5158674371       -0.6825921030       -0.6710671630
 C          1.0257488428       -1.8674188217       -0.1373554068
 C          1.6778826571       -3.0527144930       -0.4492644570
 C          2.7863828335       -3.0411224550       -1.2788872994
 C          3.2825996258       -1.8563417315       -1.7907318245
 C          2.6347131333       -0.6644314707       -1.4856520289
 N          3.0999921348        0.5657185555       -1.9748802123
 S          2.9703418381        1.9239549950       -1.0100012804
 O          1.6187826525        2.4268820554       -1.0227038264
 O          3.9797569050        2.8252391395       -1.5247561759
 C          3.4298944593        1.3685574315        0.6228125728
 C          2.4988980126        1.3167416024        1.6396188674
 C          2.8858020359        0.8265924784        2.8773744757
 C          4.1893187621        0.4004921186        3.0768266796
 C          5.1167224725        0.4685727036        2.0479149610
 C          4.7350130825        0.9541876445        0.8085397764
 H          5.4293674904        1.0306127305       -0.0123014622
 H          6.1314045658        0.1413628949        2.2071361464
 H          4.4830260671        0.0153464153        4.0404799892
 H          2.1588143812        0.7749391567        3.6724002783
 H          1.4884331008        1.6485809099        1.4567939582
 H          3.9794696910        0.5273859040       -2.4681282134
 H          4.1506778169       -1.8508440691       -2.4317383338
 H          3.2770510407       -3.9705743637       -1.5246455615
 H          1.3077407477       -3.9881196961       -0.0635719803
 C         -0.1688155828       -1.7679006218        0.7778759566
 H          0.1413529258       -1.1667379452        1.6504697045
 C         -0.6358470307       -3.1082607088        1.3255811152
 C         -2.0800912346       -3.3576917594        1.6394791252
 C         -1.4247351310       -4.0812715254        0.5034177852
 H         -1.2193485430       -5.1353608869        0.6206037045
 H         -1.6749231203       -3.7926119319       -0.5050451257
 H         -2.7861712352       -2.5742393460        1.4035794626
 H         -2.3238959560       -3.9105601113        2.5343798636
 H          0.0811519754       -3.5326203284        2.0215148094
 O         -1.3476862484        0.4804488783        2.0080636206
