  62
        -98.93925173
 C         -2.1410654507       -0.7617121196        0.5319452407
 C         -1.9255219405        0.0088565902       -0.6335733194
 C         -1.8880896406        1.4729590602       -0.4607312696
 C         -2.0775772809        1.9854364004        0.7690369702
 C         -2.1326593810        3.4387401505        1.1544843600
 C         -3.4629122710        4.1085590703        0.7582456596
 C         -4.0395467907        3.6707983601       -0.5870758704
 H         -4.1218809906        2.5823546300       -0.6035272302
 H         -5.0530253407        4.0737064600       -0.6615688707
 C         -3.2614899505        4.1394053099       -1.8144761904
 H         -3.2993178205        5.2301954399       -1.8643226006
 H         -3.7720074103        3.7467778597       -2.6973439104
 C         -1.7953029504        3.7121894699       -1.8757722500
 H         -1.2060095706        4.2640015201       -1.1483082000
 H         -1.4130729403        3.9915174398       -2.8622137300
 C         -1.5496783504        2.2123429700       -1.7311963997
 H         -2.0813149702        1.6832636698       -2.5301458397
 H         -0.4832929504        2.0125506000       -1.9026687095
 H         -4.1999923711        3.8621199404        1.5258533595
 H         -3.3208265810        5.1901893903        0.7613629294
 H         -2.0294287012        3.4820681707        2.2409587200
 H         -1.2819959310        3.9589095304        0.7225253500
 O         -2.3121999710        1.2037813706        1.8624690303
 C         -2.3096513309       -0.1752697494        1.7830978806
 O         -2.4758507011       -0.7593977292        2.8754247507
 O         -1.7771180902       -0.5021274800       -1.7756887192
 C         -2.0957836006       -2.2761945597        0.4493503510
 C         -0.7895128104       -2.7048664197       -0.1762866886
 C         -0.6860318702       -3.7451521599       -1.0908176784
 C          0.5381820399       -4.0613292099       -1.6544223081
 C          1.6747423898       -3.3431420498       -1.3328210181
 C          1.5847381196       -2.3134059896       -0.4024679683
 C          0.3651151895       -2.0215351496        0.1832453514
 H          0.3085879793       -1.2180976794        0.9044067313
 N          2.7218981795       -1.5720541495       -0.0309379382
 S          2.5266570793        0.0723255606        0.3046247815
 O          2.0425188991        0.2195319108        1.6557715114
 O          1.7518649295        0.7168185803       -0.7313511188
 C          4.2290631693        0.5994352006        0.2227052217
 C          4.6952660495        1.2299860705       -0.9150845383
 C          6.0304107595        1.5978738805       -0.9785466981
 C          6.8726494193        1.3262196608        0.0890169121
 C          6.3899888991        0.6931484709        1.2250570621
 C          5.0559819491        0.3247659209        1.2957354019
 H          4.6326197190       -0.1605093490        2.1596700619
 H          7.0468567690        0.4857426211        2.0542801323
 H          7.9113336093        1.6117600108        0.0365931722
 H          6.4071092796        2.0930460204       -1.8589459082
 H          4.0011676096        1.4244933203       -1.7170484385
 H          3.5012906496       -1.7204641096       -0.6584735780
 H          2.6226915699       -3.5730196498       -1.7951311178
 H          0.6036217801       -4.8667906000       -2.3701472780
 H         -1.5667103701       -4.2983163500       -1.3737102185
 H         -2.1198003608       -2.6400326795        1.4878476811
 C         -3.3128462904       -2.8036754199       -0.2830254191
 C         -3.8921089504       -4.1399242398        0.0699303710
 C         -4.6165464505       -2.8849108398        0.4507589007
 H         -5.5226344605       -2.6284671999       -0.0772273196
 H         -4.6162398208       -2.5850982296        1.4889126106
 H         -4.3062378302       -4.7471365000       -0.7208374889
 H         -3.4100631705       -4.7023447896        0.8552257512
 H         -3.3389288702       -2.4875476000       -1.3196807092
