  62
        -98.93906693
 C         -2.3594931048       -0.6397370948        0.1221998937
 C         -2.6467734582        0.7512911863        0.1432527696
 C         -3.9270661612        1.1681219557       -0.4414736207
 C         -4.7387130790        0.2351865089       -0.9710980884
 C         -6.0928183425        0.5056564947       -1.5587437780
 C         -7.1955807459        0.3773583992       -0.4986138901
 C         -6.9042169616        1.1450765182        0.7907193529
 H         -6.0412736863        0.6946838970        1.2866274886
 H         -7.7623570818        1.0080967449        1.4522162889
 C         -6.6466027898        2.6452396625        0.5917012266
 H         -7.2038585652        3.1998971005        1.3495304807
 H         -7.0226981901        2.9602267372       -0.3822733101
 C         -5.1801426030        3.0602748805        0.7259439336
 H         -4.7704807793        2.6646285645        1.6589181988
 H         -5.1393581254        4.1510421815        0.7885107578
 C         -4.2573960360        2.6341508651       -0.4231364484
 H         -3.3035286024        3.1542418651       -0.2944936427
 H         -4.6906638146        2.9428224026       -1.3767894553
 H         -7.3138957483       -0.6792813837       -0.2482175546
 H         -8.1329158916        0.7316350118       -0.9312620741
 H         -6.2752798208       -0.2230582837       -2.3501847096
 H         -6.1018236253        1.5053027166       -1.9887560807
 O         -4.4277859142       -1.0833943484       -0.9876719689
 C         -3.2435147374       -1.5597633500       -0.4427994157
 O         -3.1243207961       -2.7972158899       -0.5360039232
 O         -1.8649051456        1.6084647234        0.6379678525
 C         -1.0405567500       -1.0666122584        0.7418820021
 C          0.0362138352       -1.2878561321       -0.2943435866
 C         -0.0826151691       -2.2687185288       -1.2738434976
 C          0.9392406822       -2.4757834334       -2.1820259155
 C          2.1031766211       -1.7299386902       -2.1192495214
 C          2.2287682564       -0.7437659438       -1.1481841104
 C          1.1926810784       -0.5231621947       -0.2513162323
 H          1.3010209327        0.2549941943        0.4905097151
 N          3.3892256963        0.0419221530       -1.0660260976
 S          3.9306243290        0.4986610133        0.4674768564
 O          3.7991931180       -0.6084469907        1.3873310918
 O          3.2756439505        1.7252016049        0.8474308537
 C          5.6514230322        0.8162319903        0.1240048681
 C          6.5839796899       -0.1732332197        0.3723902027
 C          7.9156117159        0.0710346956        0.0752153752
 C          8.2894067720        1.2922734684       -0.4652092187
 C          7.3419893329        2.2758345969       -0.7084126806
 C          6.0089726734        2.0387713684       -0.4126837088
 H          5.2391622539        2.7752012797       -0.5751683087
 H          7.6368103888        3.2251714774       -1.1256212176
 H          9.3262206841        1.4801118492       -0.6953831060
 H          8.6547577474       -0.6901504088        0.2663137781
 H          6.2480423074       -1.1034202299        0.8017899748
 H          4.1422907411       -0.3055530029       -1.6439449735
 H          2.9056846915       -1.9049306078       -2.8197678311
 H          0.8341188998       -3.2383431642       -2.9390690262
 H         -0.9830603649       -2.8616674479       -1.3160380683
 H         -0.7246554138       -0.2136280233        1.3590869432
 C         -1.1475566185       -2.2874498120        1.6370602094
 C         -0.0249642553       -2.5807826730        2.5854435190
 C         -1.3465121304       -2.1070421142        3.1102718884
 H         -1.9754829156       -2.8104773091        3.6350161518
 H         -1.4120203255       -1.0962996472        3.4867393247
 H          0.2531779736       -3.6105959809        2.7493937795
 H          0.8105405865       -1.8952348807        2.6005425320
 H         -1.6402617037       -3.1265148687        1.1636093009
