  62
        -98.93505667
 C          2.6038298000        1.2732037990       -0.3215445555
 C          2.1876992099        0.0454870663       -0.8865006051
 C          3.1519076782       -1.0693635752       -0.8206439386
 C          4.3514411106       -0.8775299647       -0.2411305761
 C          5.5385413574       -1.8029276266       -0.0721652967
 C          5.3945463695       -3.3067291274       -0.2902602040
 C          4.5199230086       -4.0211871858        0.7396953624
 H          4.4024335844       -5.0609035565        0.4268764602
 H          5.0421685727       -4.0197530952        1.6997526392
 C          3.1382572681       -3.4128645092        0.9690935747
 H          3.2421474723       -2.4047148475        1.3762787502
 H          2.6294357450       -4.0121031065        1.7293018649
 C          2.2323763559       -3.3595535803       -0.2596169955
 H          2.1413006750       -4.3580538816       -0.6919291238
 H          1.2390508735       -3.0495298824        0.0788740485
 C          2.6720799429       -2.3839029430       -1.3649267988
 H          3.4228037070       -2.8312877798       -2.0117828103
 H          1.7971274312       -2.1590694020       -1.9817478091
 H          5.0410594689       -3.5094380457       -1.2968136130
 H          6.4004392971       -3.7288853676       -0.2169733230
 H          5.9132211171       -1.6227429087        0.9404226519
 H          6.3072760424       -1.4264443031       -0.7560442533
 O          4.7089982344        0.3304809177        0.2862592802
 C          3.8530531855        1.4152513746        0.2823955634
 O          4.3137549390        2.4347538800        0.8337993123
 O          1.0689910209       -0.1243384387       -1.4392627547
 C          1.6780212661        2.4790586426       -0.2918832706
 C          0.5097244132        2.1358520568        0.5999457046
 C          0.6981373374        2.1329754598        1.9796201195
 C         -0.3204461448        1.7472962907        2.8300000247
 C         -1.5457876734        1.3484664456        2.3236925607
 C         -1.7394778968        1.3391266026        0.9496643193
 C         -0.7195501672        1.7437160094        0.0967852327
 H         -0.8791304158        1.7181489973       -0.9693045897
 N         -2.9808235240        0.9344662278        0.4191383917
 S         -3.6610110764       -0.4723687322        1.0639756678
 O         -4.3104726070       -0.1328623831        2.3062933917
 O         -2.6732437569       -1.5258973438        1.1387536566
 C         -4.8878476985       -0.8460697906       -0.1729509424
 C         -4.5542560249       -1.6871472655       -1.2175467985
 C         -5.5020956088       -1.9506428938       -2.1939429855
 C         -6.7584079809       -1.3690006166       -2.1111038035
 C         -7.0776269357       -0.5260243372       -1.0570238865
 C         -6.1351661515       -0.2592012378       -0.0767302821
 H         -6.3391713748        0.3819187742        0.7647387845
 H         -8.0559557393       -0.0774339246       -0.9959854494
 H         -7.4934812458       -1.5764061435       -2.8726495546
 H         -5.2567856776       -2.6068592857       -3.0135196877
 H         -3.5675913076       -2.1228035003       -1.2383131482
 H         -2.9402368536        0.8652630553       -0.5894914341
 H         -2.3429530118        1.0259913847        2.9738919817
 H         -0.1599205189        1.7494186495        3.8979670939
 H          1.6630332545        2.4223009334        2.3741681950
 H          2.2487109850        3.2851908081        0.1881521507
 C          1.2878318504        2.9201802196       -1.6864272898
 C          0.6865007331        4.2779623766       -1.8865186618
 C          2.0806756589        3.9982783515       -2.3592650784
 H          2.2599823615        3.9181517639       -3.4209473744
 H          2.9050414275        4.4284744152       -1.8094278848
 H         -0.0923427616        4.3950482053       -2.6243896986
 H          0.5625927537        4.8995746262       -1.0126890329
 H          0.9332004424        2.1079666674       -2.3086797692
