  62
        -98.94517231
 C         -2.2739281019       -0.7131818852       -0.0117201961
 C         -3.2867769036       -0.6758927365        0.9798020393
 C         -4.1743678649        0.4908311684        0.9493031526
 C         -3.9653663278        1.4633246251        0.0434064475
 C         -4.7653284069        2.7301386791       -0.0955098989
 C         -6.0488940175        2.5709808954       -0.9222515654
 C         -7.1770498991        1.8031563611       -0.2320557849
 H         -7.3595258943        2.2355453031        0.7521711883
 H         -8.0791558194        1.9565131663       -0.8276444868
 C         -6.9259219369        0.2948949618       -0.0960672017
 H         -7.8233198345       -0.2518524996       -0.3941125719
 H         -6.1274853841       -0.0041954640       -0.7790528750
 C         -6.5651742577       -0.1630651300        1.3170700684
 H         -7.4109377293        0.0108586413        1.9858681956
 H         -6.3725437393       -1.2384826374        1.2897497608
 C         -5.3272350587        0.5252386590        1.9068499226
 H         -5.5628127966        1.5531379655        2.1815515696
 H         -5.0278398005       -0.0183400982        2.8061882694
 H         -6.4112462308        3.5747206235       -1.1560838875
 H         -5.7977095816        2.0807384370       -1.8657138269
 H         -5.0134585743        3.1169695061        0.8933154719
 H         -4.1180698475        3.4519408119       -0.5985989036
 O         -2.9568584294        1.4105577977       -0.8665500398
 C         -2.0996230091        0.3205883092       -0.9317539978
 O         -1.2497816458        0.4013675918       -1.8405155985
 O         -3.4398613172       -1.5753015924        1.8478619461
 C         -1.3356005172       -1.9090112207       -0.0293947433
 C          0.0386293624       -1.4374378665        0.3750421467
 C          0.3164495303       -1.2394335572        1.7251565848
 C          1.5430498660       -0.7473115353        2.1280054283
 C          2.5161534623       -0.4336022088        1.1943224926
 C          2.2418198502       -0.6095520189       -0.1545096178
 C          1.0158332281       -1.1249855656       -0.5561626670
 H          0.8130724778       -1.2450778293       -1.6084611249
 N          3.2178357217       -0.2882099039       -1.1126815404
 S          4.0609730078        1.1531555063       -0.9515779974
 O          3.2837280996        2.1644629648       -0.2728221884
 O          4.5131963821        1.4770892385       -2.2873264029
 C          5.4723196545        0.6996326337        0.0378819563
 C          5.7946492481        1.4399288211        1.1583911678
 C          6.9031295535        1.0757692492        1.9071917926
 C          7.6663801785       -0.0161834044        1.5238061438
 C          7.3312253816       -0.7477248135        0.3941128677
 C          6.2254902523       -0.3879321696       -0.3594881207
 H          5.9331672778       -0.9284571838       -1.2440622833
 H          7.9266989159       -1.5967195257        0.0993539273
 H          8.5273710496       -0.2984835543        2.1088410918
 H          7.1649945834        1.6441124040        2.7852040224
 H          5.1680057946        2.2772457127        1.4220873671
 H          2.9003747189       -0.4106543652       -2.0637480348
 H          3.4705102308       -0.0376241303        1.5004960899
 H          1.7455831097       -0.6028346211        3.1783818132
 H         -0.4504680780       -1.4649194236        2.4530789083
 H         -1.7098902044       -2.5807377859        0.7549239797
 C         -1.3722250064       -2.6399453608       -1.3548208627
 C         -0.7999415233       -4.0220360439       -1.4464534533
 C         -2.2828799125       -3.8187608419       -1.5148591248
 H         -2.7810029775       -3.9588602309       -2.4625902273
 H         -2.8792295186       -4.1081389819       -0.6620748803
 H         -0.2777617936       -4.3057336892       -2.3473820742
 H         -0.3876136775       -4.4488582284       -0.5449020939
 H         -1.2600720761       -1.9848401338       -2.2104662103
