  62
        -98.93438719
 C         -1.3197180182       -2.0378261439        0.1834495710
 C         -1.7894707222       -1.0392446424        1.0730282542
 C         -2.8800851721       -0.1623082457        0.6063234173
 C         -3.3841114714       -0.3665788258       -0.6245134224
 C         -4.5115986610        0.3583804176       -1.3122202112
 C         -4.1020704579        1.7384475668       -1.8460326430
 C         -3.2819071027        2.5778864139       -0.8710909152
 H         -2.3740825338        2.0322639207       -0.6072161158
 H         -2.9786183671        3.4864440761       -1.3981413754
 C         -4.0133194847        2.9964074502        0.4023417623
 H         -3.3574745340        3.6835585967        0.9420910360
 H         -4.9176605396        3.5457750599        0.1316679574
 C         -4.3987434211        1.8651216770        1.3590948717
 H         -4.6557422697        2.3249088298        2.3176503185
 H         -5.2914513588        1.3467712458        1.0189337069
 C         -3.2863917767        0.8597168058        1.6397603580
 H         -2.3695659533        1.3972303359        1.9082295605
 H         -3.5529041354        0.2821289291        2.5325517654
 H         -5.0057558830        2.2804997055       -2.1304091555
 H         -3.5014748667        1.5894572919       -2.7469537067
 H         -4.8135308362       -0.2656690563       -2.1565185625
 H         -5.3623869142        0.4415159073       -0.6422938096
 O         -2.8741796811       -1.3117741206       -1.4634406791
 C         -1.8170340840       -2.1416366523       -1.1149128540
 O         -1.4506243350       -2.8906247006       -2.0390856438
 H          0.7452200167       -1.2370766657       -1.1636208146
 C          1.4369819562       -1.3460778708       -0.3380305979
 C          1.1053494271       -2.1845754732        0.7166541622
 C          1.9995073020       -2.3126645823        1.7723463321
 C          3.2063230196       -1.6353905448        1.7590008604
 C          3.5360241434       -0.8046223985        0.7035531518
 C          2.6360463854       -0.6472155708       -0.3437014592
 N          2.9485537908        0.2216768752       -1.4071231081
 S          3.3387196972        1.8107555406       -1.0468811324
 O          3.2753669640        2.5097086436       -2.3094435805
 O          4.6076305909        1.8371578477       -0.3649240595
 C          2.0529983148        2.3984509141        0.0413534769
 C          2.1277683260        2.1268887318        1.3933584627
 C          1.1016200641        2.5553000470        2.2200713808
 C          0.0326670251        3.2585440797        1.6875771565
 C         -0.0214168219        3.5353055292        0.3303151365
 C          0.9907549285        3.0909872845       -0.5046850948
 H          0.9856703953        3.2839819199       -1.5656139817
 H         -0.8472212548        4.0939210426       -0.0792202799
 H         -0.7595929694        3.5979810209        2.3365995114
 H          1.1392600391        2.3377745806        3.2752177285
 H          2.9820746424        1.5962100921        1.7788302940
 H          2.2686653178        0.1994019201       -2.1536950418
 H          4.4669570764       -0.2613817277        0.6801468832
 H          3.8965566326       -1.7508409963        2.5806968286
 H          1.7376576916       -2.9357954274        2.6144381176
 C         -0.2084687024       -2.9251821333        0.7164377038
 H         -0.4683981823       -3.1138968633        1.7710541431
 C         -0.1099236479       -4.2757571244        0.0243529456
 C          0.9458370885       -4.5989716857       -0.9855289995
 C          0.9901416202       -5.2350532376        0.3695645239
 H          0.7475305855       -6.2832150993        0.4564497103
 H          1.7572327530       -4.8995664973        1.0503749613
 H          0.6581325738       -5.1941521732       -1.8383687934
 H          1.6772276995       -3.8394184757       -1.2161748724
 H         -1.0885565613       -4.7076292583       -0.1555208167
 O         -1.3170930317       -0.8910597783        2.2315807186
