  62
        -98.94757546
 C         -2.5331112781       -0.2822464613        0.0007680059
 C         -2.2180598445       -1.2889987149       -0.9415490524
 C         -1.5914504989       -2.5029257662       -0.4045037165
 C         -1.3764326104       -2.6000025828        0.9200901793
 C         -0.7478522964       -3.7802988576        1.6031536015
 C          0.7680866585       -3.6091993451        1.7612021659
 C          1.4898255859       -3.2108194879        0.4735974054
 H          1.2078103914       -2.1891983543        0.2073154400
 H          2.5596229879       -3.1910336878        0.6968001203
 C          1.2363911449       -4.1379365555       -0.7227729953
 H          0.8670428463       -5.1036732799       -0.3744026558
 H          2.1872243581       -4.3146494605       -1.2297473534
 C          0.2754680298       -3.5697203427       -1.7694107803
 H          0.5679613195       -2.5425019695       -2.0061341113
 H          0.3777089613       -4.1609866469       -2.6837186460
 C         -1.2099897495       -3.5763951274       -1.3840571882
 H         -1.7916284841       -3.3750239119       -2.2886024918
 H         -1.4895762016       -4.5631457632       -1.0079499910
 H          1.1812979561       -4.5471971415        2.1382082997
 H          0.9527484270       -2.8278186602        2.5020544171
 H         -1.1962284041       -3.8761730999        2.5939729343
 H         -0.9643148720       -4.6791531917        1.0284701007
 O         -1.7057165536       -1.6182974609        1.7979673250
 C         -2.2405549947       -0.4179041940        1.3577913631
 O         -2.4330895085        0.4203130611        2.2602221884
 H         -0.4944267484        0.8765408575       -0.9909412217
 C         -0.7377577396        1.8272810157       -0.5393492385
 C         -2.0594956458        2.1177449703       -0.2279443889
 C         -2.3509287621        3.3565818458        0.3270018836
 C         -1.3331331977        4.2571880462        0.5944257082
 C         -0.0122862886        3.9374087134        0.3384947692
 C          0.2860794023        2.7065640973       -0.2354466383
 N          1.6105121365        2.3222794859       -0.5188066046
 S          1.9742963374        0.6890464845       -0.2486068461
 O          1.6290232368       -0.0619216402       -1.4297683176
 O          1.3874264370        0.2520781892        0.9971646347
 C          3.7497734658        0.7704312237       -0.1033939434
 C          4.3294302515        0.7851717772        1.1508531592
 C          5.7089875651        0.8779839030        1.2508011975
 C          6.4802554567        0.9579740853        0.1010612170
 C          5.8839185675        0.9414899784       -1.1512315394
 C          4.5054888678        0.8469759373       -1.2581424145
 H          3.9969038443        0.8200643599       -2.2076692069
 H          6.4867610910        1.0008791129       -2.0429108773
 H          7.5533009263        1.0303228314        0.1815751161
 H          6.1749359203        0.8868687167        2.2229464974
 H          3.6883973910        0.7123468797        2.0150463709
 H          2.2923025954        2.9269507589       -0.0799457147
 H          0.7804539839        4.6287587323        0.5811069952
 H         -1.5714220289        5.2147374647        1.0323245117
 H         -3.3708240203        3.6109260990        0.5651967623
 C         -3.0850982123        1.0429661498       -0.4967692098
 H         -3.1856935675        0.9269779841       -1.5868111900
 C         -4.4469096644        1.3352144917        0.0939973635
 C         -5.4306291969        2.1772768935       -0.6609690706
 C         -5.6557211059        0.7022936576       -0.5253234719
 H         -6.4451942740        0.3557120652        0.1242533736
 H         -5.4970977698        0.0768861569       -1.3918405623
 H         -6.0711196753        2.8447945290       -0.1046675626
 H         -5.1272052045        2.5556937399       -1.6253599858
 H         -4.4215442456        1.4160866774        1.1746945110
 O         -2.4579162052       -1.1782198764       -2.1761271186
