  62
        -98.93917932
 C          2.1184473897        1.0693327072        0.0630618848
 C          2.8017513245        0.2967205019        1.0278221445
 C          3.5395733825       -0.8851224916        0.5411606878
 C          3.4857725921       -1.1845557101       -0.7703115641
 C          4.1766459469       -2.3065068251       -1.4989693743
 C          5.6756152951       -2.0402183762       -1.7132673936
 C          6.4095141648       -1.4789044386       -0.4982173326
 H          7.4279658753       -1.2336779025       -0.8104126547
 H          5.9317936409       -0.5470686372       -0.1904370436
 C          6.5025962809       -2.4219726050        0.6988488217
 H          7.0129220237       -3.3383894044        0.3943600285
 H          7.1238774978       -1.9301816094        1.4516213908
 C          5.1740517690       -2.8020505679        1.3559241756
 H          5.4077251935       -3.2629897086        2.3201635095
 H          4.6487837081       -3.5550965069        0.7744112315
 C          4.2490518922       -1.6252428619        1.6500008478
 H          4.8026939379       -0.8659709264        2.2140694633
 H          3.4575038128       -1.9664369725        2.3287388483
 H          5.7758821147       -1.3168478232       -2.5260356058
 H          6.1484548637       -2.9713232074       -2.0299873701
 H          4.0195806899       -3.2448409063       -0.9750641925
 H          3.6938518772       -2.3880367859       -2.4754932058
 O          2.7795206947       -0.4304385192       -1.6608453679
 C          2.0795039635        0.6999789555       -1.2811198131
 O          1.4812970438        1.2732309712       -2.2106189268
 O          2.8001995915        0.5775939491        2.2584696706
 C          1.3435446225        2.2957216309        0.5131356528
 C         -0.1268395559        2.0664103373        0.2631751786
 C         -0.9276372458        2.9151094371       -0.4880256936
 C         -2.2598485502        2.6072743535       -0.7070399727
 C         -2.8221012978        1.4602373042       -0.1784411586
 C         -2.0315465215        0.6082286570        0.5824606908
 C         -0.6994507829        0.9188503552        0.7999101710
 H         -0.0812865588        0.2502864478        1.3874406571
 N         -2.5972049968       -0.5583632680        1.1345809630
 S         -3.3198815821       -1.6334962587        0.0612719061
 O         -3.2668270397       -2.9194846926        0.7231802629
 O         -2.7175150723       -1.5606515812       -1.2504085925
 C         -5.0127215767       -1.0863568139       -0.0064133693
 C         -5.7254884853       -1.0265174103        1.1753146901
 C         -7.0449823206       -0.6049001944        1.1393070536
 C         -7.6266346642       -0.2557807370       -0.0706010636
 C         -6.8985437836       -0.3251568959       -1.2485286805
 C         -5.5774655496       -0.7447513060       -1.2194973407
 H         -4.9690678826       -0.8081696233       -2.1077563337
 H         -7.3520259836       -0.0537559759       -2.1882809064
 H         -8.6536856851        0.0725734247       -0.0959547669
 H         -7.6144594090       -0.5494282717        2.0529949227
 H         -5.2364759579       -1.3105372211        2.0920928954
 H         -1.9603748708       -1.0576878037        1.7399251022
 H         -3.8573511520        1.2162816165       -0.3523567286
 H         -2.8687431813        3.2710183869       -1.3016049992
 H         -0.5066440173        3.8100286144       -0.9152107113
 H          1.5000395651        2.3562769882        1.6003187173
 C          1.8902790165        3.5508232136       -0.1309033747
 C          1.7064825458        4.8781045983        0.5403780871
 C          3.0611971593        4.2392212297        0.5017126818
 H          3.8167218778        4.6652192210       -0.1411374596
 H          3.4542231900        3.8137218134        1.4136389063
 H          1.5334035323        5.7477303775       -0.0750641797
 H          1.1799226651        4.8916335815        1.4825000489
 H          1.8590286726        3.5125034695       -1.2137228877
