  62
        -98.93500812
 C         -1.9574938110       -0.6743405706       -0.2906495511
 C         -3.1158015562       -1.1991020041        0.3349519105
 C         -4.4015011380       -0.5287141157        0.0605603602
 C         -4.4050444737        0.5554386155       -0.7363945879
 C         -5.5698363940        1.4257449945       -1.1276712880
 C         -6.0099848026        2.3697932061        0.0021803732
 C         -6.1053729087        1.7205230644        1.3801937039
 H         -5.1329035140        1.3030940993        1.6473865625
 H         -6.3285047366        2.5093454591        2.1034782861
 C         -7.1775375124        0.6422161655        1.5188010129
 H         -8.1513274662        1.0715076430        1.2727988636
 H         -7.2027400708        0.3443864459        2.5701660345
 C         -6.9730934153       -0.6181939014        0.6749622572
 H         -7.6502955583       -1.3836403941        1.0650419383
 H         -7.2613917794       -0.4509004142       -0.3594587445
 C         -5.5671606849       -1.2061393983        0.7401892890
 H         -5.2772071511       -1.3283602709        1.7900199280
 H         -5.5955559279       -2.2233248330        0.3307749806
 H         -5.2817773732        3.1822104305        0.0662981474
 H         -6.9750180557        2.8026626800       -0.2669578035
 H         -6.3999981698        0.8117241002       -1.4641130126
 H         -5.2379870196        2.0298579678       -1.9751864361
 O         -3.2618937623        1.0484404526       -1.2896726554
 C         -2.0197378966        0.4655409310       -1.0933448197
 O         -1.0943289570        1.0532196399       -1.6831063502
 O         -3.0841823623       -2.1965431383        1.1048932474
 C         -0.6374322140       -1.3681071026       -0.0009139902
 C          0.3945955194       -0.3598857891        0.4321154520
 C          0.3675414973        0.1272946555        1.7351217469
 C          1.2830147437        1.0740014030        2.1561653471
 C          2.2400570952        1.5602898383        1.2833687825
 C          2.2712520440        1.0844166320       -0.0206613931
 C          1.3647930934        0.1178397382       -0.4351189233
 H          1.3875868161       -0.2317808218       -1.4554086984
 N          3.2338712246        1.5850142525       -0.9170267516
 S          4.8387939794        1.5179851146       -0.4536151351
 O          5.0991468975        2.5308783576        0.5381244145
 O          5.5985940325        1.6158717146       -1.6793833968
 C          5.0206785591       -0.1030434432        0.2668778982
 C          5.0822472104       -1.1885122881       -0.5846968890
 C          5.1459320643       -2.4622973819       -0.0442733699
 C          5.1367198094       -2.6282947233        1.3324827013
 C          5.0751527510       -1.5284501666        2.1737908790
 C          5.0149073676       -0.2513498270        1.6387951708
 H          4.9704460480        0.6292384096        2.2578665385
 H          5.0702436021       -1.6608072040        3.2436966837
 H          5.1798297378       -3.6213382746        1.7513619633
 H          5.1976650014       -3.3196682321       -0.6961479568
 H          5.0938393451       -1.0174249028       -1.6492765532
 H          3.1141311193        1.2517480397       -1.8621227308
 H          2.9546498394        2.3082311297        1.5871494698
 H          1.2480773322        1.4426798797        3.1701566070
 H         -0.3888922844       -0.2407354546        2.4145496621
 H         -0.8603020868       -2.0186761475        0.8601063980
 C         -0.1411007076       -2.2811801186       -1.1123918953
 C         -1.1062454569       -3.1149605245       -1.8994249721
 C         -0.3593464079       -2.0017266902       -2.5679851870
 H          0.4296696405       -2.2598965132       -3.2597528835
 H         -0.8979885696       -1.1072343173       -2.8387154538
 H         -0.8372053960       -4.1332824532       -2.1359038861
 H         -2.1589429710       -2.9749322422       -1.7011424910
 H          0.8000165683       -2.7538686560       -0.8474743794
