  62
        -98.93925098
 C         -1.1382735493       -1.3849420404        0.0252921087
 C         -2.0244905796       -0.9538471716        1.0385985690
 C         -2.7826604103        0.2712067881        0.7511124097
 C         -2.5710006307        0.9271971090       -0.4042303499
 C         -3.2205983615        2.2159692688       -0.8341455191
 C         -4.7406847215        2.1606703181       -1.0828519991
 C         -5.5942345517        2.5747757068        0.1222448212
 H         -5.0013577521        3.2250462268        0.7667537316
 H         -6.4372418721        3.1711129065       -0.2327989585
 C         -6.1787533910        1.4283515759        0.9531863805
 H         -7.0437830108        1.0135718057        0.4305051002
 H         -6.5362635513        1.8474844451        1.8963460707
 C         -5.2287346403        0.2690495463        1.2550517597
 H         -5.6977004799       -0.3683353144        2.0074517993
 H         -5.1071438300       -0.3480787131        0.3616479394
 C         -3.8288746106        0.6921649569        1.7418086500
 H         -3.7893080412        1.7670357168        1.9123794007
 H         -3.5931605503        0.1860841864        2.6803905397
 H         -4.9529476919        2.8504043684       -1.9012238387
 H         -5.0185860209        1.1630611581       -1.4217347597
 H         -2.7201166417        2.4985804497       -1.7616315489
 H         -3.0059230020        2.9838719685       -0.0877233386
 O         -1.6782059505        0.4984033101       -1.3364404201
 C         -0.9486833598       -0.6662082296       -1.1560627609
 O         -0.1815408996       -0.9440767586       -2.0942422910
 O         -2.1654896992       -1.5553124024        2.1386792986
 C         -0.3207689586       -2.6456812901        0.2432329979
 C          1.1463352212       -2.3005185492        0.1878678281
 C          2.0676585916       -2.9602387681       -0.6133300923
 C          3.3908882914       -2.5519249673       -0.6432824021
 C          3.8250411107       -1.4885213375        0.1262260886
 C          2.9128525403       -0.8311472686        0.9421562990
 C          1.5901915606       -1.2405235994        0.9701906088
 H          0.8805246403       -0.7210913102        1.6029594091
 N          3.3416267697        0.2607122912        1.7298643997
 S          3.8804004889        1.6055132221        0.8872942605
 O          5.1167058391        1.2749296632        0.2263699903
 O          3.9418373882        2.6695505515        1.8639080112
 C          2.6112126587        1.9489540620       -0.3165166693
 C          2.6655542490        1.3360111228       -1.5519320997
 C          1.6517387689        1.5786877128       -2.4641681695
 C          0.6076565984        2.4247022719       -2.1264145890
 C          0.5632434180        3.0269544911       -0.8787286486
 C          1.5710974882        2.7839474712        0.0397161112
 H          1.5782814779        3.2388195006        1.0177358015
 H         -0.2543693024        3.6803883305       -0.6186755982
 H         -0.1801696118        2.6062183519       -2.8400979888
 H          1.6701413891        1.0964665734       -3.4275874998
 H          3.4954385194        0.6877579735       -1.7810885801
 H          2.6461718295        0.5540539704        2.4021555599
 H          4.8466726905       -1.1456369369        0.0985196088
 H          4.0939652317       -3.0685425165       -1.2789149724
 H          1.7493641321       -3.7875072179       -1.2257705228
 H         -0.5588133984       -2.9784051109        1.2644059377
 C         -0.7333565679       -3.7282350597       -0.7307761628
 C         -0.5527649570       -5.1720725898       -0.3716010437
 C         -1.9265943574       -4.5750529107       -0.4082579333
 H         -2.5919204372       -4.8565978106       -1.2106390035
 H         -2.4298353075       -4.3871733315        0.5291014868
 H         -0.2768308466       -5.8674658092       -1.1498046941
 H         -0.1238937769       -5.3974341302        0.5931024962
 H         -0.5936656381       -3.4342412990       -1.7648177526
