  62
        -98.94130738
 C         -2.2597881925       -0.6744101335       -0.3205262236
 C         -3.4898000165       -0.9464457740        0.3292086101
 C         -4.2763842185        0.2229122299        0.7407067582
 C         -3.7815719054        1.4555131768        0.5252463804
 C         -4.4948947392        2.7344957084        0.8532869388
 C         -5.3327618239        3.2252271175       -0.3358860396
 C         -6.2278917481        2.1475999149       -0.9478369213
 H         -6.7936519897        2.6158577261       -1.7561272346
 H         -5.5994511616        1.3767635151       -1.3996007503
 C         -7.1997165884        1.4915943458        0.0428799615
 H         -7.3056111060        2.1189891357        0.9285941740
 H         -8.1838453018        1.4229721427       -0.4253490742
 C         -6.8099679287        0.0751067001        0.4693865322
 H         -7.6628350170       -0.3706540095        0.9880495954
 H         -6.6118396954       -0.5328465697       -0.4168576760
 C         -5.5999608317       -0.0304435891        1.4062553864
 H         -5.5555669522       -1.0583099502        1.7780619938
 H         -5.7356199632        0.6369279985        2.2598210427
 H         -5.9459090321        4.0643411941       -0.0022369510
 H         -4.6535692109        3.5873891255       -1.1110962162
 H         -5.1332634678        2.5756709249        1.7202865041
 H         -3.7475319961        3.4912618741        1.0979717905
 O         -2.5805339162        1.6777480679       -0.0659616035
 C         -1.7914116275        0.6259131032       -0.5096759844
 O         -0.7266196151        0.9845382938       -1.0486489872
 O         -3.9096291529       -2.1133704898        0.5520583138
 C         -1.4074861555       -1.8528638900       -0.7632150344
 C         -0.1733561499       -1.8848653092        0.1036985224
 C         -0.2761727461       -2.3753411711        1.4028648238
 C          0.8129528060       -2.3542509392        2.2528098734
 C          2.0263990496       -1.8397917355        1.8290256408
 C          2.1359835354       -1.3398165826        0.5390636582
 C          1.0432602607       -1.3743507332       -0.3187365942
 H          1.1371158730       -0.9683463581       -1.3134493470
 N          3.3662750314       -0.8176957800        0.0882329961
 S          4.1657070929        0.2613157064        1.1141027990
 O          4.7998737820       -0.4945045533        2.1657745811
 O          3.2686837793        1.3106159769        1.5469339190
 C          5.4049710020        0.9101888502        0.0104524877
 C          5.1091844418        2.0267608953       -0.7484155354
 C          6.0651938497        2.5118066552       -1.6270114185
 C          7.2921205161        1.8737744643       -1.7332511467
 C          7.5737043478        0.7538689793       -0.9652018500
 C          6.6226873094        0.2641025085       -0.0841515737
 H          6.7979060946       -0.5973718120        0.5386416862
 H          8.5293487047        0.2622060151       -1.0496026250
 H          8.0337125382        2.2544481227       -2.4176936005
 H          5.8490160847        3.3834187708       -2.2237616354
 H          4.1455261087        2.4967112281       -0.6276205913
 H          3.2665286466       -0.3986673226       -0.8275941874
 H          2.8791953904       -1.8019790768        2.4870063640
 H          0.7188715217       -2.7374360520        3.2580184657
 H         -1.2287532582       -2.7590926337        1.7415222415
 H         -2.0061658059       -2.7452708497       -0.5358893789
 C         -1.1203544594       -1.8226244988       -2.2492245309
 C         -0.5930976848       -3.0549954334       -2.9196708337
 C         -1.9974995451       -2.6025570674       -3.1803012022
 H         -2.2324837623       -2.1757319264       -4.1438433781
 H         -2.8071457504       -3.1701786579       -2.7456625684
 H          0.1375387617       -2.9428621308       -3.7059814746
 H         -0.4476330482       -3.9301514478       -2.3047751884
 H         -0.7633669659       -0.8609327430       -2.5974458616
