  62
        -98.93928830
 C         -2.1663910670       -0.7376799767        0.5285929431
 C         -1.9232971771        0.0295035701       -0.6337539892
 C         -1.8430633876        1.4917210287       -0.4573666915
 C         -2.0282968111        2.0072239214        0.7717817662
 C         -2.0378641787        3.4595753199        1.1656841751
 C         -3.3360677981        4.1789776843        0.7539188095
 C         -3.8887097629        3.7923970796       -0.6165416641
 H         -4.8813701938        4.2400471095       -0.7127363561
 H         -4.0162202165        2.7090233951       -0.6579645600
 C         -3.0539763989        4.2503661382       -1.8100787059
 H         -3.0232004149        5.3423411718       -1.8255347727
 H         -3.5671628864        3.9179232685       -2.7158543661
 C         -1.6163757301        3.7321703505       -1.8554810559
 H         -1.0021287299        4.2353818364       -1.1135199402
 H         -1.2027875787        3.9978841882       -2.8329807153
 C         -1.4693965143        2.2184823268       -1.7253703593
 H         -0.4195320630        1.9506637381       -1.9055452602
 H         -2.0393120966        1.7320059666       -2.5250832814
 H         -3.1610285267        5.2553023466        0.7882811788
 H         -4.1001314501        3.9366584441        1.4961800122
 H         -1.1630331761        3.9529426903        0.7511108914
 H         -1.9503820050        3.4919150499        2.2539913786
 O         -2.2987321322        1.2297007064        1.8603562419
 C         -2.3315048404       -0.1486658503        1.7789701532
 O         -2.5235203156       -0.7297942613        2.8687187207
 O         -1.7827599403       -0.4827367137       -1.7762872846
 C         -2.1507838498       -2.2527369600        0.4446272640
 C         -0.8479727776       -2.7054984758       -0.1716928173
 C         -0.7559580136       -3.7526936157       -1.0795624142
 C          0.4656698147       -4.0893761380       -1.6369878129
 C          1.6110101275       -3.3846534200       -1.3166166277
 C          1.5324019905       -2.3484436965       -0.3925063214
 C          0.3152770940       -2.0372543496        0.1883379130
 H          0.2679014009       -1.2293944318        0.9050112881
 N          2.6780247685       -1.6188014939       -0.0226840384
 S          2.5002427059        0.0323373686        0.2901512766
 O          2.0016848374        0.2029031905        1.6333397812
 O          1.7466991279        0.6736347397       -0.7632180617
 C          4.2096712412        0.5385700893        0.2241990701
 C          4.6903653659        1.1841759419       -0.8989201042
 C          6.0296777634        1.5391459148       -0.9465667783
 C          6.8612539128        1.2407756788        0.1221599122
 C          6.3640006779        0.5928199777        1.2434617291
 C          5.0258961108        0.2368712955        1.2981920671
 H          4.5914553770       -0.2589730819        2.1505564807
 H          7.0126231655        0.3645029599        2.0736603675
 H          7.9030063979        1.5170040280        0.0822047481
 H          6.4176739516        2.0456888120       -1.8154981201
 H          4.0041292685        1.3995540457       -1.7022667617
 H          3.4568791957       -1.7836215550       -0.6468745559
 H          2.5568663815       -3.6295778881       -1.7754883022
 H          0.5222644710       -4.8999679173       -2.3476498897
 H         -1.6432744618       -4.2953408164       -1.3622460092
 H         -2.1901967920       -2.6170969567        1.4824678745
 C         -3.3714168107       -2.7565299032       -0.2983939363
 C         -3.9814827731       -4.0800557152        0.0507472830
 C         -4.6835309358       -2.8098186114        0.4228653849
 H         -5.5790395187       -2.5354066217       -0.1140481524
 H         -4.6869352772       -2.5090273352        1.4607209168
 H         -4.4004330985       -4.6798858477       -0.7431069758
 H         -3.5190600036       -4.6510558777        0.8416607477
 H         -3.3811058329       -2.4416713334       -1.3357213293
