  62
        -98.93863122
 C         -2.8026204140       -0.1133173880        0.0836910024
 C         -2.1354976865       -0.8577009135        1.0871551456
 C         -1.8135532587       -2.2524025008        0.7468883227
 C         -2.1535458536       -2.7407259801       -0.4580857819
 C         -1.8607261527       -4.1325245659       -0.9374896040
 C         -0.5317461110       -4.2082147632       -1.7007199980
 C          0.6485707901       -3.5583193434       -0.9777119399
 H          1.5368320913       -3.7413373100       -1.5877136793
 H          0.5075060660       -2.4747630446       -0.9505800366
 C          0.8942492277       -4.0768690616        0.4461799598
 H          0.4128220894       -5.0469049392        0.5775877932
 H          1.9679352115       -4.2271822045        0.5790852337
 C          0.4340048141       -3.1248525203        1.5522066578
 H          0.7879645917       -2.1147514727        1.3275498789
 H          0.8961857480       -3.4403258010        2.4915930457
 C         -1.0813268761       -3.0574623135        1.7832244852
 H         -1.4912664284       -4.0669547238        1.8535861209
 H         -1.2537795862       -2.5478522476        2.7357715767
 H         -0.3083005569       -5.2601749793       -1.8912897868
 H         -0.6553512826       -3.7069293038       -2.6636885327
 H         -1.8376863232       -4.8051446528       -0.0819512866
 H         -2.6676646854       -4.4384672279       -1.6061225205
 O         -2.7997846607       -2.0004373466       -1.3955139845
 C         -3.1085592438       -0.6730058875       -1.1599948150
 O         -3.6685534220       -0.1011585626       -2.1180335984
 H         -0.6169467287        1.1491272399        1.0909231102
 C         -0.7115484632        1.8983214898        0.3186928287
 C         -1.9645494588        2.1777154401       -0.2092206287
 C         -2.0623246411        3.1494214330       -1.1971092722
 C         -0.9316363861        3.8041243008       -1.6577369849
 C          0.3203292015        3.4887664876       -1.1587966003
 C          0.4219909346        2.5297559130       -0.1618108304
 N          1.7095341024        2.1237291859        0.2965662243
 S          2.2788487112        0.9290512815       -0.7712777564
 O          2.5265774830        1.5670495411       -2.0400263169
 O          1.3716596003       -0.1975826243       -0.7899248099
 C          3.8252360464        0.4662773641       -0.0148889614
 C          4.8561839714        1.3864228009       -0.0192856406
 C          6.0555358060        1.0488658806        0.5865530557
 C          6.2024442709       -0.1950243885        1.1831117219
 C          5.1586368832       -1.1075037499        1.1780369806
 C          3.9552511635       -0.7757437632        0.5747815490
 H          3.1176790076       -1.4547196018        0.5431526885
 H          5.2749786401       -2.0743824664        1.6405265997
 H          7.1372128719       -0.4559705758        1.6536432033
 H          6.8701840534        1.7548539463        0.5922112248
 H          4.6972834072        2.3368129139       -0.5006272534
 H          1.6277613786        1.6832211117        1.2066280543
 H          1.2140408320        3.9511910775       -1.5442979860
 H         -1.0244634414        4.5505123870       -2.4320677018
 H         -3.0286749598        3.3683004468       -1.6280283475
 C         -3.1527594906        1.3615033508        0.2318644695
 H         -3.9666195771        1.5418473208       -0.4879295516
 C         -3.6720942426        1.7278766319        1.6145909548
 C         -2.9347202759        2.6202065240        2.5633492120
 C         -4.1653042292        3.1210520739        1.8732814670
 H         -5.0688871044        3.2521757768        2.4487471511
 H         -4.0334972645        3.8457339805        1.0837738022
 H         -1.9809770918        3.0187137125        2.2547201307
 H         -2.9861504430        2.3807258307        3.6144063465
 H         -4.2411268174        0.9193442689        2.0609162050
 O         -1.8145918623       -0.4027878634        2.2169664468
