  62
        -98.93015048
 C          2.4310852213        1.2491923826       -0.1892496530
 C          2.3628586458       -0.0464653744        0.3765202799
 C          3.6532154923       -0.6732238128        0.7256278492
 C          4.7956537614        0.0101994540        0.5469520827
 C          6.2073623735       -0.4124700480        0.8689501004
 C          6.6163667625       -1.8485056830        0.5142178156
 C          5.9461586030       -2.4233075724       -0.7421960018
 H          6.7154630891       -2.8330942631       -1.3992497914
 H          5.4374063555       -1.6298810192       -1.2924850921
 C          4.9515994609       -3.5438268298       -0.4289971639
 H          5.3896208718       -4.2004235869        0.3258292894
 H          4.7977558094       -4.1400032519       -1.3316866247
 C          3.5742513766       -3.0845123162        0.0482766099
 H          3.0062184234       -3.9704197755        0.3429796687
 H          3.0305197764       -2.6207959147       -0.7799705618
 C          3.5768560317       -2.0890206495        1.2202106086
 H          4.3728238227       -2.3133759371        1.9261031432
 H          2.6166321470       -2.1755715081        1.7364907700
 H          6.4095764154       -2.5055387336        1.3577477262
 H          7.6991285486       -1.8427429878        0.3784453525
 H          6.8435430626        0.2931581000        0.3293473523
 H          6.3759934715       -0.2458802192        1.9368045522
 O          4.8092977967        1.2806939759        0.0517111292
 C          3.6453923175        1.9245867726       -0.3282117553
 O          3.8188733334        3.0825164747       -0.7574396595
 H         -1.3681562728        0.9435796784       -0.8537592896
 C         -1.1442023025        1.3196721013        0.1293643909
 C          0.0984142403        1.8651260273        0.4102237103
 C          0.3531778084        2.3200403522        1.7015985541
 C         -0.6042304711        2.2078689379        2.6901167912
 C         -1.8378887867        1.6475672215        2.4101562436
 C         -2.1089892938        1.2051710526        1.1205363298
 N         -3.3805751911        0.6893804449        0.8121988947
 S         -3.6103642695       -0.4703933637       -0.3882225910
 O         -2.8840135980       -1.6833384858       -0.0861801694
 O         -3.3626510119        0.1265892770       -1.6762872070
 C         -5.3623913390       -0.7435360845       -0.1881999195
 C         -5.8079307806       -1.8531741718        0.5042942335
 C         -7.1716969673       -2.0370581318        0.6716688571
 C         -8.0621354365       -1.1118639481        0.1484007924
 C         -7.6002728629       -0.0031742263       -0.5455861541
 C         -6.2383262043        0.1854765237       -0.7172845921
 H         -5.8336672886        1.0259338329       -1.2564435992
 H         -8.2957594773        0.7126441708       -0.9532297261
 H         -9.1227529504       -1.2571470804        0.2799565290
 H         -7.5334964376       -2.8996992492        1.2076972874
 H         -5.0791049000       -2.5502599967        0.8858981373
 H         -3.9049440705        0.4412511381        1.6405047779
 H         -2.5842607948        1.5527783913        3.1843284513
 H         -0.3880388293        2.5539603298        3.6899241922
 H          1.3225680660        2.7479717399        1.9214876437
 C          1.1860876158        2.0002712286       -0.6274379168
 H          1.4897689184        3.0604920177       -0.6573111344
 C          0.7173658860        1.6435656601       -2.0305434409
 C          1.6726550842        1.1426440815       -3.0710657420
 C          0.6322433334        0.2253798770       -2.5056984448
 H         -0.2071274044       -0.0566453030       -3.1255799851
 H          0.9383814615       -0.5493545262       -1.8200759653
 H          2.7015082208        0.9929188564       -2.7766898449
 H          1.5552068735        1.4936383357       -4.0852200993
 H         -0.0604185061        2.3158730324       -2.3810643169
 O          1.2875789219       -0.6619014111        0.5975154652
