  62
        -98.94111610
 C         -1.8979156803       -0.9145521093        0.2689338069
 C         -2.3069426832        0.0830348531        1.1883000858
 C         -2.5543949359        1.4194264125        0.6336744321
 C         -2.3233178306        1.6385912562       -0.6732764885
 C         -2.5684005545        2.9392514859       -1.3813265529
 C         -3.9887781008        3.0005688307       -1.9608861631
 C         -5.0800325580        2.6152958893       -0.9620440310
 H         -6.0399013248        2.7223270031       -1.4716040129
 H         -4.9685649183        1.5597715611       -0.7036622573
 C         -5.0871933358        3.4527120765        0.3244087058
 H         -6.1165405761        3.7376749891        0.5513353301
 H         -4.5217165939        4.3723531441        0.1707037984
 C         -4.5448031973        2.7263034420        1.5567180735
 H         -4.7921430131        3.3216851613        2.4395080918
 H         -5.0450458806        1.7604316707        1.6629870750
 C         -3.0294153074        2.4877656622        1.5782241315
 H         -2.5042249967        3.4268834572        1.3901272223
 H         -2.7592501081        2.1406509604        2.5801425400
 H         -4.0445437738        2.3164416357       -2.8106945928
 H         -4.1681846900        4.0131855423       -2.3264713796
 H         -2.4120320596        3.7593508539       -0.6829090753
 H         -1.8450714842        3.0252602744       -2.1941190056
 O         -1.8796360749        0.6735796572       -1.5162119679
 C         -1.6420253599       -0.6195053982       -1.0717629202
 O         -1.2269518556       -1.3872042680       -1.9601750048
 H          0.6459825742       -0.9178886041        1.0642522859
 C          0.8263711231       -1.8544536469        0.5543951437
 C         -0.2304469006       -2.7311273079        0.3387043254
 C          0.0233736473       -3.9296774912       -0.3133754429
 C          1.3003668445       -4.2229325419       -0.7608907872
 C          2.3388754897       -3.3288874321       -0.5827622052
 C          2.0963788584       -2.1304180734        0.0807731609
 N          3.1322625430       -1.2031889242        0.2978185978
 S          2.7461149862        0.4402924722        0.3056380362
 O          2.2443743559        0.7900512476        1.6124271290
 O          1.9004696607        0.7756589669       -0.8182099318
 C          4.3727661225        1.1395303457        0.0886570159
 C          5.2025126479        1.2429332050        1.1892734571
 C          6.4801949112        1.7519720821        1.0193109126
 C          6.9051437801        2.1457216698       -0.2410253790
 C          6.0606883744        2.0378892376       -1.3357447291
 C          4.7818706046        1.5282328426       -1.1728561646
 H          4.0867929847        1.4321364469       -1.9918433719
 H          6.3919582395        2.3475373651       -2.3138273122
 H          7.8997764230        2.5419721665       -0.3707154230
 H          7.1382775584        1.8399353495        1.8685795189
 H          4.8235657884        0.9323999022        2.1489010399
 H          3.9436081368       -1.3859622235       -0.2774694050
 H          3.3271482067       -3.5491000424       -0.9568577511
 H          1.4838884364       -5.1540711199       -1.2753789412
 H         -0.7816904472       -4.6214277187       -0.4987918710
 C         -1.5927860689       -2.2972972071        0.8190201623
 H         -1.5309599235       -2.1444275402        1.9106118836
 C         -2.6843337550       -3.3310227510        0.5883185894
 C         -4.1060403349       -2.9145600523        0.3608471575
 C         -3.3214148671       -3.5384296748       -0.7519158767
 H         -3.5709224355       -4.5466428641       -1.0488788791
 H         -2.9866473347       -2.9117467356       -1.5632033165
 H         -4.8908995655       -3.4906324137        0.8275998161
 H         -4.3126769805       -1.8552238085        0.3082796607
 H         -2.5386738351       -4.2163571674        1.1997693866
 O         -2.4556880193       -0.1358675808        2.4220714445
