  62
        -98.93534821
 C          2.1131602733        1.0760195806        0.1550578066
 C          2.5726414423        0.1433647643        1.1134071208
 C          2.9356720399       -1.1865439342        0.6032013273
 C          2.7715445788       -1.4517371176       -0.7058881495
 C          3.1542017978       -2.7340681754       -1.3885003426
 C          4.6800543694       -2.7808563961       -1.6079252500
 C          5.3965495490       -3.8785865794       -0.8211601805
 H          5.2111985797       -4.8397787487       -1.3049952924
 H          6.4682157994       -3.6786605036       -0.8838137566
 C          4.9991636166       -4.0116429586        0.6520841731
 H          4.0583497779       -4.5585410140        0.7302483266
 H          5.7602269647       -4.6305459569        1.1318366445
 C          4.8690795288       -2.6977026408        1.4331276338
 H          5.2709135175       -2.8575337444        2.4356436395
 H          5.4694535584       -1.9140475061        0.9708885450
 C          3.4234512649       -2.1954802717        1.6065707208
 H          3.3430824328       -1.6886338616        2.5729628609
 H          2.7393028571       -3.0487497603        1.6260764564
 H          4.8896345617       -2.9269484905       -2.6685321364
 H          5.0936110761       -1.8071347014       -1.3373529724
 H          2.6288945184       -2.7604727341       -2.3435686175
 H          2.8253316905       -3.5802700456       -0.7891222222
 O          2.2988316984       -0.5375017061       -1.5927282144
 C          1.9459052132        0.7408873827       -1.1886741949
 O          1.5116421346        1.4679129329       -2.1021091423
 O          2.6626535238        0.4082535596        2.3439448446
 C          1.6861688962        2.4593345684        0.6157037739
 C          0.2155584880        2.6324192067        0.3241694303
 C         -0.3222638716        3.7239321879       -0.3437114448
 C         -1.6753692314        3.7723260360       -0.6357148522
 C         -2.5194990576        2.7407493687       -0.2679944976
 C         -1.9938761613        1.6565899317        0.4199087724
 C         -0.6435707827        1.6136849201        0.7186417347
 H         -0.2393279806        0.7546985190        1.2421926030
 N         -2.8503926939        0.5806938557        0.7780101670
 S         -3.1311661781       -0.4960136332       -0.5001039120
 O         -2.1003125193       -1.5155755348       -0.5104293925
 O         -3.3124713557        0.2594222297       -1.7122051049
 C         -4.6832391980       -1.2140115246        0.0034158125
 C         -5.8359703788       -0.4787270609       -0.1938190431
 C         -7.0463809785       -1.0037347462        0.2287384986
 C         -7.0832591135       -2.2478979103        0.8409760759
 C         -5.9177987748       -2.9739992620        1.0320913187
 C         -4.7035106131       -2.4533292442        0.6121340314
 H         -3.7735419440       -2.9852651209        0.7336119499
 H         -5.9490600188       -3.9417308649        1.5064257151
 H         -8.0263620016       -2.6550090234        1.1697302216
 H         -7.9548498913       -0.4426638793        0.0803164837
 H         -5.7581307722        0.4789525039       -0.6810145420
 H         -2.4487917519        0.0351971516        1.5310482723
 H         -3.5672264946        2.7531731793       -0.5183197030
 H         -2.0741181470        4.6219632342       -1.1688356030
 H          0.3218897167        4.5299210948       -0.6550612755
 H          1.8269432465        2.4627220679        1.7068170515
 C          2.5623339703        3.5309018558        0.0045430829
 C          2.7565362273        4.8379499172        0.7119896744
 C          3.8778583981        3.8462986457        0.6489757674
 H          4.7238884738        4.0606656611        0.0135518882
 H          4.1330087441        3.3021326380        1.5465880966
 H          2.8356096832        5.7372429331        0.1202700606
 H          2.2529901828        4.9732550644        1.6570731750
 H          2.5217974869        3.5321896850       -1.0789033820
