  62
        -98.93678694
 C          2.2267013363        1.0585402909       -0.0910060212
 C          3.3075581365        0.8791058524        0.8048086421
 C          4.2947683885       -0.1597500700        0.4603290745
 C          4.0923283510       -0.9116469297       -0.6364669093
 C          4.9486416101       -2.0192398316       -1.1972025852
 C          5.5333428705       -3.0244516677       -0.1931520559
 C          7.0442787284       -2.8834492909        0.0021923108
 H          7.4418185122       -3.8403866218        0.3475986252
 H          7.5011897311       -2.6721439119       -0.9668791395
 C          7.4742074992       -1.8155685092        1.0065018014
 H          8.5610821440       -1.7230699645        0.9454830330
 H          7.2330614920       -2.1518813001        2.0171523532
 C          6.8518543411       -0.4340855076        0.7962789287
 H          6.8178395691       -0.1886824326       -0.2646712738
 H          7.5024649561        0.3020102168        1.2730669115
 C          5.4520294356       -0.2908597291        1.4125241612
 H          5.2568724970       -1.1229269010        2.0948188459
 H          5.4101461366        0.6153874159        2.0244974158
 H          5.3368593638       -4.0269897511       -0.5768745077
 H          5.0164095936       -2.9391357275        0.7612955218
 H          5.7550034810       -1.5681194938       -1.7813971582
 H          4.3039205238       -2.5396799541       -1.9093678006
 O          3.0158950829       -0.7269926932       -1.4536763500
 C          2.0689206607        0.2556257425       -1.2193353243
 O          1.1661060303        0.3044769999       -2.0775808482
 O          3.4506437580        1.5684150253        1.8501015162
 C          1.2060419500        2.1401118272        0.2230575835
 C         -0.1028355105        1.4775173062        0.5730691771
 C         -0.2829693700        0.9658443266        1.8555525496
 C         -1.4475429423        0.3032032414        2.1932232673
 C         -2.4538163906        0.1280590660        1.2584636231
 C         -2.2748942795        0.6163077910       -0.0281386548
 C         -1.1123722374        1.3011137078       -0.3594053966
 H         -0.9825400971        1.6645721680       -1.3663148946
 N         -3.2842718819        0.4402179136       -0.9888164544
 S         -4.0424726900       -1.0510814679       -1.1059154768
 O         -3.1788768773       -2.1340510360       -0.6951106002
 O         -4.5505703535       -1.1101404980       -2.4594088671
 C         -5.4185862511       -0.9050792753        0.0171858149
 C         -6.2485541245        0.1918799632       -0.1084331546
 C         -7.3294297785        0.3153287469        0.7497157219
 C         -7.5634465093       -0.6559847170        1.7117447827
 C         -6.7235002904       -1.7532688049        1.8228651108
 C         -5.6396770390       -1.8820548606        0.9679617387
 H         -4.9562388907       -2.7147501163        1.0217374531
 H         -6.9066976770       -2.5078247844        2.5709429672
 H         -8.4052993872       -0.5573582112        2.3787404102
 H         -7.9845629855        1.1674777803        0.6663455575
 H         -6.0335968951        0.9227394494       -0.8698629813
 H         -3.0317920711        0.7861869498       -1.9035007933
 H         -3.3597385900       -0.3978276465        1.5115924493
 H         -1.5752112013       -0.0838779485        3.1927467254
 H          0.5104950213        1.0855154938        2.5800771857
 H          1.5851353358        2.6419105088        1.1234027460
 C          1.1006617580        3.1573811246       -0.8936776106
 C          0.4217500709        4.4672733989       -0.6304173939
 C          1.9079232164        4.4169137675       -0.8141980731
 H          2.3301672348        4.8150331284       -1.7247202348
 H          2.5363118802        4.5529553692        0.0536300741
 H         -0.1787574925        4.9040955572       -1.4135740997
 H          0.0393764005        4.6363305256        0.3646506930
 H          0.9817028836        2.7100184473       -1.8732186812
