  62
        -98.93691307
 C         -2.3017162840       -0.6953874951       -0.0293729110
 C         -2.4595920186        0.3638737209        0.8899056932
 C         -2.3059698363        1.7308034271        0.3612491690
 C         -1.9980330704        1.8947846501       -0.9380441413
 C         -1.7689323132        3.1785833272       -1.6952341249
 C         -0.8695775663        4.2180759281       -1.0079027087
 C         -1.6273055257        5.4629951816       -0.5430079326
 H         -0.9212161039        6.2926684680       -0.4669632175
 H         -2.3611649535        5.7267538079       -1.3072599235
 C         -2.3290948324        5.3282518930        0.8070644296
 H         -2.9405433797        6.2218750538        0.9522609259
 H         -1.5804694230        5.3123516855        1.6021377046
 C         -3.2203456494        4.0942968852        0.9628267625
 H         -3.7794030115        3.9064411496        0.0472558570
 H         -3.9512157125        4.3085620312        1.7454307628
 C         -2.4551417763        2.8293130673        1.3788537050
 H         -1.4584693365        3.0948376550        1.7462329087
 H         -2.9644783025        2.3530756025        2.2229864300
 H         -0.3436154623        3.7541926977       -0.1736234341
 H         -0.1115422984        4.5311660324       -1.7278964772
 H         -1.3219780907        2.8699427706       -2.6428538528
 H         -2.7379612762        3.6238903343       -1.9337187788
 O         -1.8714889742        0.8415301675       -1.7953630767
 C         -1.9884347945       -0.4678803720       -1.3686077421
 O         -1.8128146574       -1.3202807598       -2.2608162247
 H          0.0338191581       -1.0525646532        0.9164010183
 C          0.1241493882       -2.0513804606        0.5126914903
 C         -1.0208356482       -2.7846329250        0.2271745667
 C         -0.8750801973       -4.0719526011       -0.2728878562
 C          0.3864229021       -4.5899322413       -0.5125209675
 C          1.5209860460       -3.8369683537       -0.2744097751
 C          1.3854630764       -2.5543339008        0.2458168479
 N          2.5116889884       -1.7573698553        0.5209345884
 S          2.3769572190       -0.0943751382        0.2475200041
 O          1.7919984002        0.5232344974        1.4125872455
 O          1.7206263711        0.1593967635       -1.0149311227
 C          4.1042804141        0.3407179733        0.1481752822
 C          4.8098958526        0.5367991083        1.3203227846
 C          6.1618780939        0.8325496578        1.2466762721
 C          6.7825124678        0.9253619581        0.0096626872
 C          6.0611010218        0.7275286124       -1.1581197069
 C          4.7088481250        0.4300276936       -1.0914313519
 H          4.1046248243        0.2754802744       -1.9712920789
 H          6.5449065605        0.8033158453       -2.1185235764
 H          7.8346474222        1.1558296235       -0.0451256732
 H          6.7251510464        0.9892792792        2.1523458609
 H          4.2814125502        0.4622527514        2.2563657656
 H          3.3580263426       -2.1256843991        0.1075062104
 H          2.5019812740       -4.2333435000       -0.4881086949
 H          0.4857979117       -5.5887516408       -0.9096930407
 H         -1.7489846798       -4.6640980712       -0.4897806154
 C         -2.3579675643       -2.1272249901        0.4706663948
 H         -2.5151801392       -2.0535919968        1.5576236366
 C         -3.5225379615       -2.8739345866       -0.1441636387
 C         -4.1878579401       -3.9878420432        0.6064997551
 C         -4.8920812699       -2.6772104344        0.4311108936
 H         -5.7321824444       -2.6261064685       -0.2449406446
 H         -4.9787052889       -2.0221828073        1.2857654426
 H         -3.8042790905       -4.2281171973        1.5865174999
 H         -4.5493865474       -4.8398134155        0.0508084914
 H         -3.4381171829       -2.9558837526       -1.2219994219
 O         -2.7178481623        0.1768284087        2.1120952840
