  62
        -98.93936165
 C         -1.0198174267       -1.4306505416       -0.5784288833
 C         -2.3095390029       -1.6429180221       -0.0335437712
 C         -3.2985479624       -0.5596243862       -0.1906233737
 C         -2.9232495425        0.5676147634       -0.8234799408
 C         -3.7262181197        1.8204017117       -1.0561278979
 C         -3.8868697703        2.6776400788        0.2095084028
 C         -4.2237945809        1.8995677573        1.4782101079
 H         -3.4478557586        1.1534513417        1.6581377414
 H         -4.2007278633        2.6024062625        2.3152098154
 C         -5.5909826676        1.2205343069        1.4783525293
 H         -6.3666933234        1.9735692404        1.3222395908
 H         -5.7414850585        0.7910503462        2.4721675836
 C         -5.7787965045        0.1055765240        0.4475900528
 H         -6.6817361241       -0.4464301103        0.7246195748
 H         -5.9584053357        0.5114905549       -0.5442859363
 C         -4.6421975937       -0.9105366164        0.4022962289
 H         -4.4428246860       -1.2724365275        1.4173239553
 H         -4.9842273358       -1.7921591473       -0.1533862809
 H         -2.9454878907        3.2015777560        0.3853771034
 H         -4.6605535556        3.4243579791        0.0225094629
 H         -4.6959195588        1.5670820266       -1.4751366440
 H         -3.1837625619        2.4014821073       -1.8048682047
 O         -1.6731436187        0.7245195193       -1.3429343917
 C         -0.6981323789       -0.2520741188       -1.2515324176
 O          0.3723268154        0.0533900723       -1.8100216094
 O         -2.6322890064       -2.7028358563        0.5687821289
 C          0.0150576901       -2.5247900056       -0.3695783787
 C          0.9388430039       -2.0893725397        0.7417031439
 C          0.7015635797       -2.5205948570        2.0436286842
 C          1.4978955065       -2.0859440021        3.0869963183
 C          2.5362814631       -1.2021801011        2.8547766907
 C          2.7766781883       -0.7592890282        1.5577813266
 C          1.9883941296       -1.2112912515        0.5086791835
 H          2.1849838535       -0.8506594111       -0.4872548378
 N          3.8163773182        0.1433178856        1.3062304785
 S          3.8688350831        1.1379097124       -0.0257439977
 O          4.1585106371        0.3712572716       -1.2114746037
 O          4.8708080677        2.1251701585        0.3283725334
 C          2.3011841802        1.9777618191       -0.1790538423
 C          2.0224472272        2.5472740702       -1.4040831377
 C          0.8601167172        3.2829591164       -1.5578784227
 C         -0.0057754574        3.4322222820       -0.4874723882
 C          0.2830853320        2.8489275063        0.7349669086
 C          1.4511786203        2.1206021999        0.8976444970
 H          1.6847349392        1.6578612699        1.8432179385
 H         -0.3991546581        2.9526014884        1.5645926804
 H         -0.9140454119        4.0012553051       -0.6121069929
 H          0.6278364560        3.7247529029       -2.5137549400
 H          2.7122641478        2.3880567934       -2.2173532924
 H          4.2552134747        0.5541606151        2.1160535759
 H          3.1563513119       -0.8541935190        3.6666957080
 H          1.3052512013       -2.4318760327        4.0911395903
 H         -0.1257501089       -3.1900309759        2.2301238630
 H         -0.5539977745       -3.3945835646       -0.0140272740
 C          0.7512827554       -2.9185320314       -1.6319809303
 C          1.4577141461       -4.2395518055       -1.6726520122
 C          0.2098532275       -4.0315429927       -2.4760875643
 H          0.2928114659       -3.9505582040       -3.5495647909
 H         -0.6968369279       -4.5159962497       -2.1436707783
 H          2.4019170168       -4.3013879427       -2.1918219239
 H          1.3963172689       -4.8659091136       -0.7953504031
 H          1.2115924423       -2.0867513213       -2.1493779677
