  62
        -98.94491011
 C         -1.8407752949       -0.4047717399        0.0719960633
 C         -2.9165157406       -0.4794416977        0.9977241051
 C         -4.0685600341        0.3923116875        0.7397683061
 C         -4.0412343672        1.2151874631       -0.3239246267
 C         -5.1618192381        2.1230527301       -0.7381410471
 C         -6.1075228611        1.4250647193       -1.7256093432
 C         -6.5581805941        0.0362956357       -1.2726483683
 H         -7.2454004474       -0.3455724743       -2.0307362289
 H         -5.6936898361       -0.6312809139       -1.2569990569
 C         -7.2442508312        0.0075803215        0.1002970592
 H         -7.5730967597        1.0114569147        0.3715237532
 H         -8.1366979413       -0.6181374423        0.0327043511
 C         -6.3832906365       -0.5652975166        1.2277131675
 H         -7.0291021415       -0.7425317075        2.0918205836
 H         -5.9746082387       -1.5315186393        0.9214943925
 C         -5.2234646536        0.3213397530        1.6986020414
 H         -4.8230512122       -0.1152607839        2.6181914635
 H         -5.5950956332        1.3222443007        1.9278965488
 H         -6.9808390536        2.0624193111       -1.8757036696
 H         -5.5931684482        1.3225006107       -2.6839738074
 H         -5.7115819257        2.4387311283        0.1465207942
 H         -4.7318182885        3.0028160189       -1.2201403150
 O         -2.9900115506        1.2767731333       -1.1768326819
 C         -1.8710489527        0.4727047697       -1.0116888799
 O         -1.0043019850        0.6536773646       -1.8918866540
 O         -2.9121010769       -1.2500237748        1.9942260735
 C         -0.6626494128       -1.3288292899        0.3322312142
 C          0.4894635379       -0.6069644911        0.9890700419
 C          0.9500077970       -0.9873290989        2.2438407350
 C          2.0336328389       -0.3488166562        2.8225807931
 C          2.6796240004        0.6804072842        2.1619143215
 C          2.2202179104        1.0724835700        0.9113561841
 C          1.1393544933        0.4272348671        0.3303426400
 H          0.7886921418        0.7385994028       -0.6423071793
 N          2.8852035921        2.1085586261        0.2204513864
 S          4.5026821000        1.8029662364       -0.1044696442
 O          5.2797849377        2.0570234900        1.0827679004
 O          4.8317052143        2.6060181131       -1.2607203122
 C          4.5487438556        0.0645716042       -0.5014461615
 C          5.0657658266       -0.8353871280        0.4077796919
 C          5.0180956412       -2.1879666992        0.1109107407
 C          4.4517523045       -2.6143613262       -1.0800094931
 C          3.9368624611       -1.6972013979       -1.9833410504
 C          3.9809211447       -0.3439992553       -1.6917981246
 H          3.5912591544        0.3964554710       -2.3724528856
 H          3.4964470687       -2.0290335572       -2.9101494795
 H          4.4118160524       -3.6681877704       -1.3068257460
 H          5.4172863575       -2.9043160848        0.8105154451
 H          5.4956458517       -0.4605592054        1.3219637464
 H          2.4089031038        2.3728337502       -0.6308648963
 H          3.5309337880        1.1850979852        2.5895290032
 H          2.3797682497       -0.6563858162        3.7974013504
 H          0.4458547823       -1.7841654968        2.7705801193
 H         -1.0393477420       -2.0728673248        1.0466223727
 C         -0.1796793327       -2.0558945310       -0.9088831962
 C          0.6087206039       -3.3193909817       -0.7478176643
 C         -0.7930368541       -3.3723419270       -1.2755511465
 H         -0.9466730545       -3.5949094065       -2.3208279570
 H         -1.5680800344       -3.7597961311       -0.6302359162
 H          1.4232727609       -3.5060649485       -1.4295793773
 H          0.7855016747       -3.6726413476        0.2564397803
 H          0.0915937757       -1.3908549590       -1.7181084569
