  62
        -98.93535979
 C         -2.3479237038       -1.1056500824       -0.5657401517
 C         -3.4950880601       -0.7466303946        0.1869079254
 C         -4.1005661764        0.5645880088       -0.0992082350
 C         -3.5392186309        1.3473628447       -1.0365436011
 C         -3.9487824596        2.7365356941       -1.4408437434
 C         -3.1599984952        3.7891344699       -0.6430962783
 C         -3.7838034423        4.1832020427        0.6951015991
 H         -3.0695427844        4.8324236745        1.2068280049
 H         -4.6872328531        4.7686463733        0.5115361940
 C         -4.1363091226        3.0161439975        1.6210749156
 H         -3.3244549691        2.2857225930        1.6164659349
 H         -4.2104454110        3.4066468403        2.6379809052
 C         -5.4613546992        2.3319183746        1.2529701879
 H         -5.9977686787        2.9557678934        0.5383768523
 H         -6.0924424331        2.2659246752        2.1416150457
 C         -5.3296685938        0.9063313571        0.6983512173
 H         -5.3275702649        0.1925383500        1.5280247726
 H         -6.2122347934        0.6770624645        0.0918442172
 H         -2.1509338829        3.4008553357       -0.4779005220
 H         -3.0662556466        4.6916277819       -1.2506031198
 H         -3.6953904748        2.8397427488       -2.4979489311
 H         -5.0193588071        2.8736758228       -1.3215938167
 O         -2.4364326742        0.9679611355       -1.7361079977
 C         -1.8096084095       -0.2477286288       -1.5243822295
 O         -0.8148492981       -0.4249877364       -2.2564760096
 H          0.7173522389       -1.4843063854       -0.9765207953
 C          0.6784970858       -1.7247962525        0.0753392847
 C         -0.4925526184       -2.2405523925        0.6120959068
 C         -0.5369079342       -2.5035126215        1.9766320538
 C          0.5633085048       -2.2557459813        2.7788463698
 C          1.7276099677       -1.7370427640        2.2403947810
 C          1.7767292516       -1.4610615726        0.8803585162
 N          2.9538681422       -0.9137318675        0.3138240985
 S          3.3676986106        0.6231096285        0.8885987591
 O          3.7335580610        0.5056660329        2.2773893921
 O          2.3179273167        1.5751663151        0.5894432485
 C          4.8154711647        0.9633228354       -0.0918975653
 C          6.0253794440        0.4280503445        0.3064327158
 C          7.1485568127        0.6619375756       -0.4705841919
 C          7.0432513543        1.4214579146       -1.6264261140
 C          5.8216541323        1.9515536157       -2.0132465165
 C          4.6938182825        1.7198157852       -1.2413384364
 H          3.7249114880        2.1170876284       -1.5005100745
 H          5.7419992789        2.5429149899       -2.9113070276
 H          7.9186939714        1.6036133852       -2.2295532380
 H          8.1004819697        0.2525868540       -0.1733247873
 H          6.0596411948       -0.1483342621        1.2158391816
 H          2.8542045182       -0.8440990736       -0.6923313880
 H          2.5827116524       -1.5177451312        2.8581795854
 H          0.5131382236       -2.4643810385        3.8369723508
 H         -1.4511855231       -2.8844462482        2.4088654362
 C         -1.7129934071       -2.4517657475       -0.2518330964
 H         -2.4598046786       -2.9866668097        0.3497781844
 C         -1.4093022230       -3.2767031798       -1.4859370573
 C         -1.1768966657       -4.7490611442       -1.3326961497
 C         -2.4313731279       -4.2519920675       -1.9843832416
 H         -2.5453859422       -4.3766417484       -3.0507460325
 H         -3.3580149405       -4.3297882416       -1.4346988172
 H         -0.4270963220       -5.2188229723       -1.9503309917
 H         -1.2523110039       -5.1642102688       -0.3390909696
 H         -0.8282373779       -2.7484758766       -2.2302535545
 O         -3.9962236366       -1.4972827503        1.0668723325
