  62
        -98.94607682
 C          1.9360800204        1.3048327040        0.2358905892
 C          1.7347792523       -0.0892189934        0.1012558536
 C          2.9022727568       -0.9306894761        0.3910537424
 C          4.0614337172       -0.3607311880        0.7677118573
 C          5.3334427769       -1.0866016820        1.1130429885
 C          6.1895059957       -1.4599559031       -0.1050615660
 C          5.6408926126       -2.6016608453       -0.9619615101
 H          6.4395632574       -2.9026358152       -1.6428792248
 H          5.4171554839       -3.4577530371       -0.3247505360
 C          4.4007886358       -2.2342357600       -1.7889894739
 H          4.3112787853       -1.1469588249       -1.8483691923
 H          4.5230705881       -2.6002354654       -2.8109837239
 C          3.0890561288       -2.8100338282       -1.2553855575
 H          3.1155687790       -3.9002085076       -1.3179995076
 H          2.2751654136       -2.4555063742       -1.8931825468
 C          2.7680702071       -2.4099761495        0.1904092097
 H          1.7294449808       -2.6779896878        0.3979921347
 H          3.4144571177       -2.9489464706        0.8825776895
 H          6.3218798826       -0.5702118867       -0.7250626662
 H          7.1736187425       -1.7543682189        0.2668728063
 H          5.9135154883       -0.4125490713        1.7469855788
 H          5.0996632168       -1.9854914892        1.6841634108
 O          4.2078332826        0.9848068812        0.9014142488
 C          3.1590657156        1.8482614118        0.6280508556
 O          3.4329172720        3.0562200872        0.7796062319
 H         -1.8348600976        1.8353199775       -0.8274300318
 C         -1.6701627574        1.7298689873        0.2312409955
 C         -0.4082665948        1.9061459159        0.7753631082
 C         -0.2498200409        1.7647561181        2.1524203562
 C         -1.3228543265        1.4378087386        2.9576656663
 C         -2.5769658432        1.2362796877        2.4066433068
 C         -2.7484240189        1.3835652552        1.0363009628
 N         -4.0168199316        1.2168484387        0.4512786951
 S         -4.2397896613        0.1781004691       -0.8419331507
 O         -3.4088725255        0.5790585923       -1.9468206771
 O         -5.6673711914        0.1970220829       -1.0773052682
 C         -3.7669252351       -1.4328862237       -0.2372023138
 C         -2.4301449454       -1.7447565047       -0.0902708639
 C         -2.0924883164       -2.9870932368        0.4251112308
 C         -3.0823557332       -3.8888795179        0.7820101899
 C         -4.4204364600       -3.5578194158        0.6285765085
 C         -4.7673677045       -2.3176847941        0.1188637444
 H         -5.7935081277       -2.0183574896       -0.0218313510
 H         -5.1908138662       -4.2597485884        0.9047906094
 H         -2.8089044076       -4.8534594331        1.1801967104
 H         -1.0486558032       -3.2317704464        0.5416631978
 H         -1.6635697306       -1.0391526182       -0.3689158607
 H         -4.7591371886        1.0754251981        1.1220600247
 H         -3.4155762682        0.9726112109        3.0332062127
 H         -1.1823251928        1.3306711944        4.0227156411
 H          0.7327255805        1.9123377676        2.5807389657
 C          0.7957013526        2.2610466209       -0.0625607193
 H          1.1443834381        3.2588589817        0.2420153295
 C          0.5122372858        2.2798387457       -1.5504042318
 C         -0.0555143868        3.5068848966       -2.1954824240
 C          1.3708933947        3.1205206511       -2.4444939529
 H          1.6397906859        2.7327694540       -3.4157727500
 H          2.1498318702        3.7049956359       -1.9761209840
 H         -0.2456664301        4.3615129821       -1.5637214048
 H         -0.7710899896        3.3821044007       -2.9945395168
 H          0.1941428488        1.3152213707       -1.9309761956
 O          0.6393313589       -0.6066347550       -0.2367272115
