  62
        -98.93440403
 C          2.4405193733        1.4881968405        0.2543449078
 C          2.7448648245        0.6079325302       -0.8091705238
 C          3.7296841980       -0.4618455250       -0.5320669735
 C          4.2538343883       -0.5661605086        0.7023580548
 C          5.2321395446       -1.5839438873        1.2270271987
 C          4.5847992864       -2.9520176729        1.4904525910
 C          3.6644008285       -3.4495311320        0.3793276696
 H          3.2020625931       -4.3792396040        0.7220065282
 H          2.8584252870       -2.7278549547        0.2308033542
 C          4.3506801214       -3.7318354981       -0.9553503481
 H          5.1437416144       -4.4668123469       -0.8014483485
 H          3.6030829882       -4.1834349330       -1.6127278605
 C          4.9421280499       -2.5172833268       -1.6753870517
 H          5.1455834803       -2.8192074325       -2.7068919890
 H          5.8971037568       -2.2286084510       -1.2447724237
 C          4.0133391077       -1.3098213119       -1.7493032813
 H          4.4015594327       -0.6161001034       -2.5047813004
 H          3.0375759726       -1.6321288189       -2.1312607678
 H          5.3783877088       -3.6812042154        1.6623966813
 H          3.9912228451       -2.8762820561        2.4049888976
 H          6.0740370525       -1.6799908594        0.5479353094
 H          5.6107353700       -1.1915869744        2.1735071702
 O          3.9051502042        0.2862241651        1.7087462610
 C          3.0131547432        1.3197716456        1.5179740874
 O          2.8150931888        2.0211708186        2.5305016619
 H          0.1415084261        0.7007561793       -1.1521499357
 C         -0.4717460833        1.1730458591       -0.3983400411
 C          0.0595555343        2.2150988232        0.3498364897
 C         -0.7371542728        2.8102970996        1.3202078218
 C         -2.0339965444        2.3739150596        1.5298843481
 C         -2.5617750132        1.3404377679        0.7767889141
 C         -1.7706318949        0.7335414403       -0.1900501786
 N         -2.2975934787       -0.3154524466       -0.9660840408
 S         -2.9893497360       -1.6096382757       -0.1480428132
 O         -2.4055294715       -1.7793964800        1.1631992206
 O         -2.8819296161       -2.7345931624       -1.0511691263
 C         -4.7024407771       -1.1456452620       -0.0027826382
 C         -5.3901802834       -0.8301719784       -1.1584081288
 C         -6.7251605855       -0.4707241179       -1.0653848189
 C         -7.3471817876       -0.4360426319        0.1739365940
 C         -6.6439733566       -0.7593735483        1.3242436218
 C         -5.3077170262       -1.1187504886        1.2382848380
 H         -4.7190434089       -1.3719209659        2.1057689905
 H         -7.1290689755       -0.7321786362        2.2867417832
 H         -8.3861681101       -0.1551691403        0.2438918294
 H         -7.2751574636       -0.2185376218       -1.9576959141
 H         -4.8702999709       -0.8725796417       -2.1008980375
 H         -1.6531570927       -0.6469896051       -1.6703850416
 H         -3.5702104185        0.9955493404        0.9369681309
 H         -2.6410576433        2.8435065830        2.2886805454
 H         -0.3269661191        3.6070677365        1.9233885221
 C          1.4812537192        2.6620889585        0.1266999698
 H          1.7491538565        3.3347701696        0.9565309722
 C          1.6723343965        3.4433864774       -1.1675357870
 C          0.6474460793        3.5235987396       -2.2551845238
 C          0.9069244628        4.7150936267       -1.3865997504
 H          1.4225890187        5.5652727335       -1.8065053686
 H          0.1551713481        4.9696918275       -0.6545790715
 H          1.0038029727        3.5327626004       -3.2740515315
 H         -0.2821588116        2.9925446643       -2.1256451805
 H          2.7090666424        3.4402656579       -1.4886848437
 O          2.2298354947        0.6815199400       -1.9564053145
