  62
        -98.93952681
 C          2.1112558653        1.0431999828        0.0169747448
 C          2.8320047279        0.3477253628        1.0133159865
 C          3.5393194624       -0.8732784431        0.5891431287
 C          3.4443700765       -1.2786370500       -0.6912401647
 C          4.0067713149       -2.4960067700       -1.3957015406
 C          5.0966068413       -3.3436888165       -0.7444238476
 C          6.4482845362       -2.6451753336       -0.5992487424
 H          7.1130602190       -3.3024534164       -0.0346789820
 H          6.8782892220       -2.5123530458       -1.5950932320
 C          6.4136133348       -1.2753408834        0.0736212133
 H          7.4370613486       -0.8920983420        0.1039169960
 H          5.8287052521       -0.5826055109       -0.5348541536
 C          5.8709624138       -1.2620673178        1.5011791886
 H          6.0505590090       -0.2650565549        1.9121169579
 H          6.4226027097       -1.9796174167        2.1115118758
 C          4.3670342417       -1.5549138472        1.6408561375
 H          4.1709138438       -2.6246139411        1.6504417932
 H          4.0325317444       -1.1526024532        2.6017396872
 H          4.7564977903       -3.7219768169        0.2151551857
 H          5.2419057267       -4.2124846987       -1.3922239407
 H          3.1444839519       -3.1394796245       -1.6048416943
 H          4.3638879294       -2.1381977263       -2.3666858864
 O          2.7040773545       -0.5918836542       -1.6110177249
 C          2.0256468548        0.5732590066       -1.2924324537
 O          1.4031785504        1.0808645655       -2.2434743563
 H         -0.0696546379        0.2957591796        1.3527486037
 C         -0.6930542731        0.9558037288        0.7609893759
 C         -0.1206151516        2.0822636452        0.1813255478
 C         -0.9298628304        2.9196816894       -0.5736326244
 C         -2.2695258325        2.6203460804       -0.7559151702
 C         -2.8309815449        1.4923850349       -0.1869366998
 C         -2.0321472726        0.6529281186        0.5790246118
 N         -2.5968437379       -0.4955702460        1.1699911835
 S         -3.3170753500       -1.6020365370        0.1268730544
 O         -3.2539162120       -2.8709976790        0.8204380458
 O         -2.7206634165       -1.5588622595       -1.1887217654
 C         -5.0133386288       -1.0669561027        0.0522087547
 C         -5.7236337576       -0.9875516216        1.2342877375
 C         -7.0467556825       -0.5781238290        1.1926807897
 C         -7.6342109895       -0.2599200199       -0.0229432367
 C         -6.9081427434       -0.3475969490       -1.2008815348
 C         -5.5835211998       -0.7554420004       -1.1663613260
 H         -4.9766748323       -0.8328003323       -2.0545549229
 H         -7.3660597589       -0.0996323645       -2.1449228130
 H         -8.6644242599        0.0579301699       -0.0528506274
 H         -7.6147357372       -0.5085454132        2.1063102637
 H         -5.2297228083       -1.2478830602        2.1554507775
 H         -1.9563208876       -0.9777815930        1.7853157925
 H         -3.8718151616        1.2534959359       -0.3329351896
 H         -2.8847688606        3.2753751856       -1.3535974397
 H         -0.5097846297        3.7993625680       -1.0323888698
 C          1.3564981863        2.3058419668        0.3942910327
 H          1.5307926340        2.4391911645        1.4722985959
 C          1.9097828725        3.5061498109       -0.3426051021
 C          1.7757985362        4.8772668983        0.2474954425
 C          3.1140123370        4.2043690454        0.2120291887
 H          3.8601378097        4.5703520971       -0.4771772378
 H          3.5237743915        3.8270562191        1.1376609699
 H          1.2775964859        4.9633646068        1.2011388267
 H          1.6047906316        5.7102725870       -0.4172837443
 H          1.8454890144        3.4000401509       -1.4195810666
 O          2.8735340503        0.7218847695        2.2174422636
