  62
        -98.94792717
 C          0.9353341807        1.0712436820        0.7042128057
 C          1.4500610360        0.8919590397       -0.6026465679
 C          2.1752277967       -0.3638098937       -0.8320846297
 C          2.2813871887       -1.2671048367        0.1587635459
 C          2.9615897546       -2.6069546806        0.0673766181
 C          4.4814050290       -2.5530396872        0.2753280320
 C          5.2772092559       -1.9496487842       -0.8825305957
 H          6.3296611250       -2.1752429710       -0.6994831345
 H          4.9950582132       -2.4444790076       -1.8124642879
 C          5.1183086099       -0.4307386577       -1.0376043139
 H          4.7067293731       -0.0109960256       -0.1169957285
 H          6.0997347883        0.0246244321       -1.1875264138
 C          4.2369789123       -0.0022331054       -2.2111661433
 H          4.7050051279       -0.3025553549       -3.1513760239
 H          4.1623631889        1.0881274167       -2.2053943816
 C          2.8132534750       -0.5728682177       -2.1712414195
 H          2.2040507378       -0.0461620796       -2.9105422521
 H          2.8226997738       -1.6326874181       -2.4275131066
 H          4.6883428060       -1.9929867807        1.1899755620
 H          4.8250992315       -3.5787876277        0.4273253985
 H          2.5305820821       -3.2307732088        0.8535260267
 H          2.7390389023       -3.0644524854       -0.8976648121
 O          1.7452498163       -1.0694247134        1.3930567819
 C          1.0594791389        0.0973907697        1.6934335924
 O          0.6101022962        0.1439940224        2.8564766035
 H         -1.4507342156        0.3232524232        0.3410778502
 C         -1.7772111817        1.2492123764       -0.1098954300
 C         -1.0640149289        2.4142285074        0.1415221003
 C         -1.5070789781        3.5990578067       -0.4318194195
 C         -2.6185383400        3.6024033041       -1.2572101872
 C         -3.2992001393        2.4319312534       -1.5380810193
 C         -2.8700613685        1.2427951038       -0.9595887917
 N         -3.5360137659        0.0308469962       -1.1994885072
 S         -2.6437356236       -1.3775939150       -1.3529888738
 O         -1.3654980061       -1.1462395154       -1.9836695397
 O         -3.5350373911       -2.2861046261       -2.0459677746
 C         -2.4201938006       -1.9592970978        0.3134273928
 C         -3.4973388239       -1.9541100274        1.1770375259
 C         -3.3196393123       -2.4287063597        2.4665564238
 C         -2.0784050886       -2.9001627857        2.8665971279
 C         -1.0092782097       -2.9056979576        1.9848003351
 C         -1.1808874865       -2.4330349285        0.6940371936
 H         -0.3720867276       -2.4016740972       -0.0207344344
 H         -0.0401649620       -3.2582573114        2.2997352233
 H         -1.9385659672       -3.2617266768        3.8730150612
 H         -4.1467871285       -2.4254444602        3.1580481458
 H         -4.4450204912       -1.5762696651        0.8314020550
 H         -4.2813909646        0.0789981434       -1.8791061460
 H         -4.1513732726        2.4334219258       -2.2005765727
 H         -2.9505696544        4.5286777245       -1.7012209494
 H         -0.9771188185        4.5179485261       -0.2414478530
 C          0.1453434247        2.3225569260        1.0412054650
 H         -0.2080594498        2.1907669640        2.0748416908
 C          1.0360973994        3.5461563731        0.9811976804
 C          0.7712768487        4.7208525465        1.8730905599
 C          1.9482187004        3.8313963060        2.1351551898
 H          2.9388515772        4.2080781690        1.9291356816
 H          1.9041988398        3.1569664337        2.9781797166
 H          0.9570955738        5.7124690655        1.4886719724
 H         -0.0691613384        4.6577535237        2.5475747945
 H          1.4170362117        3.7329856297       -0.0163270470
 O          1.3156657533        1.7352751384       -1.5272446716
