  62
        -98.94047186
 C          1.6956865504        0.2186781787       -0.8002142622
 C          3.0065793451        0.3620456088       -1.3229871561
 C          4.0587459852       -0.4285574766       -0.6711546403
 C          3.7371635613       -1.2137749139        0.3726823252
 C          4.7155711350       -2.0285789484        1.1669158582
 C          5.2581172694       -1.2333590549        2.3626778678
 C          5.7534520994        0.1666570696        1.9999182258
 H          4.9042859135        0.7726221242        1.6754169251
 H          6.1410879866        0.6216257290        2.9140406437
 C          6.8392619781        0.1949180411        0.9150997229
 H          7.6280493913        0.8829559806        1.2266605732
 H          7.2915916132       -0.7926611556        0.8174013964
 C          6.3534499098        0.6667785866       -0.4566950704
 H          5.8174606498        1.6134314640       -0.3503046395
 H          7.2304634795        0.8570450311       -1.0811765350
 C          5.4531647356       -0.3133152747       -1.2195006638
 H          5.3442677541        0.0631662694       -2.2409545079
 H          5.9319142088       -1.2937769612       -1.2643543671
 H          4.4605069795       -1.1326700812        3.1023049584
 H          6.0718196420       -1.8027837038        2.8155167622
 H          4.2031444405       -2.9182969885        1.5365165944
 H          5.5346643598       -2.3356116835        0.5194400853
 O          2.4756272719       -1.3131058205        0.8585239807
 C          1.4235614955       -0.5940571000        0.3020071277
 O          0.3367865902       -0.7749461357        0.8788591156
 O          3.2846522652        1.1216798923       -2.2893674912
 C          0.5917993699        1.0394902543       -1.4442765961
 C         -0.2256776637        1.7197221600       -0.3768303191
 C          0.3823944436        2.6734903071        0.4351086410
 C         -0.3214787473        3.2781991447        1.4582793429
 C         -1.6417472786        2.9398004482        1.6979308774
 C         -2.2564825876        1.9860810067        0.8945846640
 C         -1.5520662486        1.3957744168       -0.1457676751
 H         -2.0465804848        0.6680725347       -0.7653130507
 N         -3.5705696903        1.5919965390        1.1540923177
 S         -4.5809361166        0.7746234024        0.1249119050
 O         -4.3602962803        1.1584648633       -1.2508999023
 O         -5.9089011232        1.0338392794        0.6400517713
 C         -4.2394668001       -0.9689594317        0.3157232362
 C         -5.2422751369       -1.8236122078       -0.1052585812
 C         -5.0536339899       -3.1919094126       -0.0095336934
 C         -3.8642597458       -3.6868561083        0.5043868952
 C         -2.8698616572       -2.8182752399        0.9226242321
 C         -3.0517886662       -1.4453650257        0.8320533512
 H         -2.2640858651       -0.7788021701        1.1440275851
 H         -1.9374252584       -3.1905478357        1.3167775717
 H         -3.7119489423       -4.7522036235        0.5783980311
 H         -5.8298300107       -3.8657395194       -0.3351787975
 H         -6.1527047098       -1.3959615049       -0.4938554005
 H         -4.0496401608        2.0557946994        1.9082457194
 H         -2.1884922805        3.3993533601        2.5069777880
 H          0.1618147330        4.0159998643        2.0812023263
 H          1.4197172102        2.9255720572        0.2597039634
 H          1.1251483113        1.8167094198       -2.0168667182
 C         -0.2581941163        0.2701043498       -2.4441733299
 C          0.3219013378       -0.8490569253       -3.2541526777
 C         -0.7077308649       -1.1395206366       -2.2054455939
 H         -1.7036590773       -1.4160967112       -2.5218353226
 H         -0.3942166269       -1.6192417533       -1.2919846737
 H          0.0396898842       -0.9309058263       -4.2929947768
 H          1.3460924556       -1.1298444820       -3.0554911568
 H         -0.9633618913        0.9192041805       -2.9561042393
