  62
        -98.94488881
 C          1.9362239758        0.5080428595       -0.6421735520
 C          2.9970994943        1.3105731729       -0.1570414609
 C          4.3381546191        0.7244713784       -0.2526930435
 C          4.4948973653       -0.4968855157       -0.7950640049
 C          5.8012955913       -1.2193002174       -0.9843653548
 C          6.2793647481       -1.9816669042        0.2590982176
 C          6.7992650943       -1.1056837175        1.3996644289
 H          7.2983033331       -1.7679637776        2.1098973542
 H          7.5513996532       -0.4171098937        1.0133405354
 C          5.7091569146       -0.3188587839        2.1405471112
 H          4.7316837330       -0.7521967214        1.9159019809
 H          5.8607286465       -0.4133232725        3.2181989738
 C          5.6754900978        1.1748118354        1.8167620623
 H          4.8457598523        1.6261245058        2.3666057041
 H          6.6004313290        1.6447496249        2.1581748401
 C          5.4860426654        1.4941052466        0.3279665351
 H          6.4029927794        1.2836225323       -0.2218440288
 H          5.2554996978        2.5578843590        0.2317651016
 H          5.4592741087       -2.6053921399        0.6224962742
 H          7.0868208808       -2.6460940949       -0.0571671207
 H          6.5698043705       -0.5117773277       -1.2969738859
 H          5.6432423356       -1.9397755879       -1.7898066782
 O          3.4508375357       -1.2297051136       -1.2659541006
 C          2.1467933511       -0.7600696426       -1.1833135684
 O          1.2910620367       -1.5507168798       -1.6239073297
 O          2.8300599582        2.4595903633        0.3322114464
 C          0.5181777159        1.0463762751       -0.5569693685
 C         -0.3078430477        0.1377012718        0.3183809730
 C          0.0945633968       -0.0506029475        1.6395153228
 C         -0.5986755649       -0.9023314926        2.4756572398
 C         -1.7165246660       -1.5776474954        2.0158655912
 C         -2.1293943751       -1.3950191035        0.7023150361
 C         -1.4297756242       -0.5354400961       -0.1362468029
 H         -1.7618959701       -0.4307500672       -1.1547803356
 N         -3.2473703402       -2.0858568309        0.2084889927
 S         -4.4031140952       -1.3067239964       -0.7119721084
 O         -5.5283104281       -2.2152544068       -0.7210453322
 O         -3.8673610662       -0.9413215126       -1.9976058396
 C         -4.8103141418        0.1501475850        0.2324710117
 C         -5.7151118894        0.0263065469        1.2692029871
 C         -5.9930213535        1.1340040793        2.0530636563
 C         -5.3572377518        2.3390283712        1.7940549638
 C         -4.4515134409        2.4464575696        0.7502321172
 C         -4.1721225325        1.3427946312       -0.0405735115
 H         -3.4773493562        1.3896763500       -0.8625027574
 H         -3.9595448931        3.3845551534        0.5481716566
 H         -5.5704893001        3.2005888197        2.4069224998
 H         -6.7003017481        1.0548670549        2.8628451899
 H         -6.1944168793       -0.9258930396        1.4294339149
 H         -3.6831264240       -2.7039418068        0.8772001244
 H         -2.2560248969       -2.2512724870        2.6642296595
 H         -0.2701411527       -1.0424196603        3.4944146707
 H          0.9700956852        0.4751087096        1.9955181085
 H          0.6103113744        2.0198879890       -0.0533520118
 C         -0.0555777364        1.2684162898       -1.9392043212
 C         -1.1131777675        2.3081735520       -2.1531384915
 C          0.2761566153        2.5351863311       -2.6673508413
 H          0.4496792742        2.4869654114       -3.7319115419
 H          0.8999356790        3.2530999116       -2.1550331713
 H         -1.8991318004        2.1039312590       -2.8654890927
 H         -1.4272128742        2.8817245697       -1.2939183970
 H         -0.1072175285        0.3589936441       -2.5276572932
