  62
        -98.94530391
 C         -2.1415243300       -0.8887534095        0.0728893521
 C         -2.8503672724       -0.2150407794        1.0952799832
 C         -3.5813438465        0.9910105708        0.6845409942
 C         -3.5007350258        1.4045011043       -0.5936111570
 C         -4.2331810662        2.5860079859       -1.1592145857
 C         -5.5979324635        2.1728093093       -1.7281287415
 C         -6.4314297936        1.3170520281       -0.7741891414
 H         -7.3834922293        1.1131846648       -1.2687507235
 H         -5.9320524481        0.3563764628       -0.6292247453
 C         -6.6936271183        1.9628558966        0.5935057555
 H         -7.7456624865        1.8234278336        0.8507113257
 H         -6.5137403078        3.0370019091        0.5366926218
 C         -5.8729876136        1.3718845489        1.7412741246
 H         -6.2876338110        1.7431507020        2.6821762495
 H         -5.9776767159        0.2840653254        1.7438396447
 C         -4.3771469465        1.7116235099        1.7365732565
 H         -4.2449273408        2.7920202786        1.6474930323
 H         -3.9610700916        1.3928890592        2.6969893949
 H         -6.1511304742        3.0773920006       -1.9870924468
 H         -5.4314840621        1.6018446156       -2.6444842560
 H         -3.6280039977        3.0129097135       -1.9609644640
 H         -4.3639392042        3.3339555132       -0.3794059660
 O         -2.7693858095        0.7585512122       -1.5376369136
 C         -2.0779727680       -0.4061515426       -1.2346488654
 O         -1.4596767491       -0.9011298736       -2.1952097585
 O         -2.8651134598       -0.6004188323        2.2962095127
 C         -1.3783604442       -2.1552529906        0.4180234358
 C          0.0941428575       -1.9528348395        0.1569508013
 C          0.8755243265       -2.8375416387       -0.5735329914
 C          2.2170030836       -2.5721452192       -0.7901829395
 C          2.8087774799       -1.4321257949       -0.2791637622
 C          2.0377577109       -0.5430545800        0.4587251040
 C          0.6957200567       -0.8117307733        0.6745176513
 H          0.0947282365       -0.1144036326        1.2462703046
 N          2.6324373718        0.6134370885        0.9966307795
 S          3.4995519611        1.6048879171       -0.0473455249
 O          3.4595989143        2.9170703224        0.5622136799
 O          3.0106048664        1.5107893454       -1.4034415611
 C          5.1604892696        0.9708897167        0.0537992868
 C          5.8209952151        0.5832604616       -1.0954466930
 C          7.1157890052        0.0983717692       -0.9927341089
 C          7.7235326052        0.0114332061        0.2503739431
 C          7.0470819431        0.4073744220        1.3947723728
 C          5.7532609885        0.8940585087        1.2990427647
 H          5.1940392999        1.2154399969        2.1617538521
 H          7.5229592609        0.3381498362        2.3596369525
 H          8.7303950964       -0.3673766882        0.3277532609
 H          7.6428937059       -0.2094219687       -1.8814737310
 H          5.3051592857        0.6636607356       -2.0392096449
 H          1.9980717183        1.1667138644        1.5551137501
 H          3.8512115969       -1.2198827328       -0.4514772660
 H          2.8103621199       -3.2642165793       -1.3679181183
 H          0.4326719382       -3.7294922109       -0.9847102809
 H         -1.5166565785       -2.2932260386        1.5009202787
 C         -1.9695845441       -3.3467394854       -0.3047872648
 C         -1.8540089102       -4.7197690333        0.2846772444
 C         -3.1776252568       -4.0177926526        0.2745584669
 H         -3.9452779440       -4.3684380861       -0.3988827110
 H         -3.5602636466       -3.6302957917        1.2076350860
 H         -1.7147512388       -5.5570913905       -0.3821792575
 H         -1.3394502028       -4.8159636777        1.2286026194
 H         -1.9236914405       -3.2434209943       -1.3831204707
