  62
        -98.93728858
 C          2.3894929670       -0.0689190327        0.4703681170
 C          3.1313944944       -0.0590420303       -0.7379883380
 C          4.5357046593       -0.4797845027       -0.6251168275
 C          5.0299885029       -0.8689490139        0.5635155955
 C          6.4288015451       -1.3567979987        0.8273059691
 C          7.4491508511       -0.2335450500        1.0563371791
 C          7.8373204679        0.5559629012       -0.1943442087
 H          8.1434735159       -0.1364833665       -0.9790921124
 H          8.7089094433        1.1599026079        0.0657975031
 C          6.7349910132        1.4834059412       -0.7247754543
 H          7.1619780699        2.4621889287       -0.9549047921
 H          5.9829448843        1.6381101494        0.0524628858
 C          6.0402999458        0.9837564334       -1.9916117287
 H          6.7581963288        0.9503847266       -2.8141673931
 H          5.2566502952        1.6981055809       -2.2566676075
 C          5.3915266532       -0.3997478805       -1.8533536278
 H          6.1575388526       -1.1747092434       -1.8357848373
 H          4.7453923922       -0.5633375974       -2.7193398890
 H          8.3522033717       -0.6922280470        1.4656259538
 H          7.0524593774        0.4499695379        1.8106228652
 H          6.7590887957       -1.9872633604        0.0013163772
 H          6.3784248999       -1.9661754941        1.7322439803
 O          4.2793514943       -0.8827055806        1.6974858843
 C          2.9600899786       -0.4638664220        1.6822666736
 O          2.4042239840       -0.4905499531        2.8002193459
 O          2.6609370815        0.2664932560       -1.8588258883
 C          0.9428121724        0.3750945053        0.5294547947
 C         -0.0383967284       -0.6268089896       -0.0398064688
 C          0.3484843940       -1.7480445023       -0.7609305297
 C         -0.6013782545       -2.6165875492       -1.2712376273
 C         -1.9495303161       -2.3877973663       -1.0723823913
 C         -2.3492020171       -1.2778478282       -0.3345677435
 C         -1.3945289170       -0.4113312780        0.1737946595
 H         -1.7213943704        0.4440978374        0.7418244557
 N         -3.7091638933       -1.0516258980       -0.0686593963
 S         -4.2792219430        0.5284464811        0.0915101430
 O         -3.8676862115        1.3273866403       -1.0404182110
 O         -3.9121678727        1.0270105414        1.3930334644
 C         -6.0360400262        0.2288091555        0.0382686983
 C         -6.7389692310        0.4749662144       -1.1257405733
 C         -8.0998103195        0.2122467039       -1.1550022083
 C         -8.7300237832       -0.2923582375       -0.0276035339
 C         -8.0110307333       -0.5339993943        1.1338793122
 C         -6.6509887160       -0.2717657193        1.1706417826
 H         -6.0539372680       -0.4341438633        2.0528191628
 H         -8.5049798946       -0.9238872095        2.0092508182
 H         -9.7888888553       -0.4959839364       -0.0528688876
 H         -8.6622050249        0.4021652005       -2.0549748358
 H         -6.2085477765        0.8741118953       -1.9753321202
 H         -4.3203541783       -1.6088040222       -0.6499158107
 H         -2.6862944544       -3.0663304567       -1.4744607900
 H         -0.2834115902       -3.4799650784       -1.8362264510
 H          1.3977481294       -1.9368260655       -0.9307833114
 H          0.7067918506        0.4892547234        1.5981380710
 C          0.7487602988        1.7222374751       -0.1479673609
 C         -0.1938358868        2.7381915714        0.4187813608
 C          1.2857553609        2.9595716762        0.5046593225
 H          1.7372472657        3.7175591535       -0.1173360626
 H          1.7595697837        2.8447436706        1.4693433933
 H         -0.7726938132        3.3380739704       -0.2673969302
 H         -0.7205320454        2.4957409593        1.3303025180
 H          0.8293951589        1.6608710386       -1.2267037700
