  62
        -98.94453950
 C         -1.7915192249       -0.6421792856       -0.3936041614
 C         -2.8878218716       -1.3304518195        0.1806736306
 C         -4.2187222186       -0.8460429799       -0.2009229542
 C         -4.3327588718        0.1801970234       -1.0636292980
 C         -5.6206353509        0.7686734290       -1.5730232587
 C         -6.2421505638        1.8149836934       -0.6378735737
 C         -6.8715258748        1.2539467119        0.6378536567
 H         -7.4534966012        2.0601503806        1.0888908520
 H         -7.5679849463        0.4563851330        0.3772778801
 C         -5.8583009436        0.7392492866        1.6697690294
 H         -4.8680449040        1.1379985809        1.4372004584
 H         -6.1278268132        1.1108131165        2.6610039309
 C         -5.7694585493       -0.7839247001        1.7657392946
 H         -6.7203497648       -1.1842617301        2.1241209722
 H         -4.9999291564       -1.0365670812        2.4995316681
 C         -5.4126475616       -1.4810135408        0.4461212528
 H         -5.1583427903       -2.5208351685        0.6652670580
 H         -6.2664448576       -1.4647165259       -0.2308013882
 H         -5.4751220978        2.5473265925       -0.3752186922
 H         -7.0189632803        2.3359035315       -1.2024372118
 H         -5.3855737377        1.2529967351       -2.5232800717
 H         -6.3404230073       -0.0291098954       -1.7583986134
 O         -3.2540264135        0.8073194620       -1.6038202758
 C         -1.9602252087        0.4317666374       -1.2674554724
 O         -1.0732998596        1.1171406054       -1.8109542976
 O         -2.7592549936       -2.3015484801        0.9729473651
 C         -0.3833872451       -1.0825144418       -0.0311429708
 C          0.3336932967        0.0507409372        0.6574441982
 C         -0.2039041416        0.5459026202        1.8442658915
 C          0.3902250762        1.6034886008        2.5028957814
 C          1.5401071401        2.1851643071        1.9972110341
 C          2.0860364020        1.6975280045        0.8160271913
 C          1.4891029181        0.6290656599        0.1575290147
 H          1.9198696069        0.2862919880       -0.7678737377
 N          3.2427187517        2.2773920302        0.2853398877
 S          4.3025983557        1.4516057365       -0.6910157150
 O          5.5253185778        2.2241316202       -0.6128864754
 O          3.7617611383        1.2745761414       -2.0154552138
 C          4.5619362655       -0.1429463460        0.0700636220
 C          4.7357703527       -1.2392150006       -0.7499687621
 C          4.9795630597       -2.4778388282       -0.1783614555
 C          5.0422116991       -2.5993263280        1.2006874048
 C          4.8686156255       -1.4887683821        2.0119497386
 C          4.6311508398       -0.2467725742        1.4450998137
 H          4.4973674542        0.6294956001        2.0576151594
 H          4.9174712190       -1.5856264489        3.0845974556
 H          5.2274969336       -3.5645609952        1.6448226605
 H          5.1159286170       -3.3416493094       -0.8091171378
 H          4.6704012459       -1.0994325161       -1.8173307657
 H          3.6895847609        2.9820996712        0.8510109036
 H          2.0036193704        3.0175864886        2.5042219490
 H         -0.0410590804        1.9791782837        3.4184512642
 H         -1.1037725005        0.0914673252        2.2356811209
 H         -0.5146616974       -1.8966773048        0.6966127936
 C          0.3389891550       -1.6280212437       -1.2431563592
 C          1.4702658171       -2.5943651938       -1.0658148863
 C          0.1557127855       -3.0704482929       -1.6050242371
 H          0.0899131331       -3.3353212927       -2.6496388274
 H         -0.4774797970       -3.6652849083       -0.9631473730
 H          2.3084891255       -2.5292337152       -1.7421282257
 H          1.7390685248       -2.8699316381       -0.0573607963
 H          0.4004950746       -0.9129267905       -2.0562912060
