  62
        -98.94021676
 C         -1.4832748189       -1.5949516696       -0.1528937528
 C         -2.5534693455       -1.2150316292        0.6967821804
 C         -3.4698458369       -0.1795955368        0.1908492284
 C         -3.2584810967        0.3370535782       -1.0318018749
 C         -4.0764291638        1.3853863072       -1.7353233416
 C         -3.4902171968        2.7921831553       -1.5351150721
 C         -3.9121367944        3.4953213311       -0.2444322998
 H         -3.2920989051        4.3891805034       -0.1453790960
 H         -4.9481915580        3.8266832325       -0.3413238913
 C         -3.7884908939        2.6622684589        1.0343863032
 H         -2.8457264835        2.1129282004        1.0312640521
 H         -3.7596254661        3.3519952694        1.8800400508
 C         -4.9591851241        1.6869267528        1.2315044503
 H         -5.3814627102        1.8257554128        2.2287791029
 H         -5.7511910452        1.9342555663        0.5247689563
 C         -4.6028377823        0.1976463701        1.1050849774
 H         -5.4962554787       -0.3596708709        0.8042343598
 H         -4.3096758641       -0.1923742586        2.0846537137
 H         -2.4014520790        2.7119179644       -1.5759411141
 H         -3.7967847687        3.4185800276       -2.3754153849
 H         -5.1111065760        1.3420380070       -1.4076232068
 H         -4.0358881683        1.1449179194       -2.8002022335
 O         -2.2022892508       -0.0337768103       -1.8052263489
 C         -1.2876209181       -0.9908292946       -1.3942775032
 O         -0.3786907700       -1.1958078709       -2.2230272578
 O         -2.7414176270       -1.7285986529        1.8310891084
 C         -0.5462523375       -2.6816169745        0.3537451442
 C          0.7556423328       -2.0518488331        0.7831579658
 C          0.9635399112       -1.7086376936        2.1153026501
 C          2.1216149614       -1.0603630688        2.5066472003
 C          3.0836142406       -0.7153529083        1.5736888668
 C          2.8741385438       -1.0379868242        0.2394441220
 C          1.7328546425       -1.7254793375       -0.1454075948
 H          1.5771509778       -1.9550767543       -1.1878652959
 N          3.8005054446       -0.6015113061       -0.7292815515
 S          4.1345107941        1.0422259331       -0.6800522078
 O          4.3492831665        1.4435623542       -2.0529580869
 O          5.2433344847        1.2723709007        0.2135769062
 C          2.6690776962        1.8143776614       -0.0074434108
 C          2.7831077390        2.6246589115        1.1042209046
 C          1.6399286966        3.1869428357        1.6489738544
 C          0.4030441225        2.9182696009        1.0843118170
 C          0.3067360368        2.1028530825       -0.0319447921
 C          1.4461261270        1.5500689442       -0.5921205040
 H          1.3780590405        0.9123867053       -1.4601047404
 H         -0.6539178216        1.8777122317       -0.4682055759
 H         -0.4917249257        3.3410022796        1.5139207194
 H          1.7146352446        3.8229416503        2.5161234916
 H          3.7623529638        2.7905258789        1.5230992095
 H          3.5412659275       -0.8731804969       -1.6676412400
 H          3.9815342452       -0.1868747140        1.8514238749
 H          2.2714341975       -0.8083849806        3.5451116026
 H          0.1969252420       -1.9401814033        2.8405251159
 H         -1.0363580136       -3.0862249869        1.2488876956
 C         -0.3616196356       -3.8058714432       -0.6447292737
 C          0.2109054725       -5.1083326981       -0.1743609449
 C         -1.2365235341       -5.0184699479       -0.5515958331
 H         -1.5627107000       -5.4892248088       -1.4669912213
 H         -1.9727968008       -5.0453875344        0.2383237789
 H          0.8816794223       -5.6434948601       -0.8288695068
 H          0.4572353150       -5.1942881281        0.8731202184
 H         -0.0964437485       -3.4687230839       -1.6386243051
