  62
        -98.94238427
 C         -0.7783167848       -1.4913646438        0.1590750934
 C         -1.4428795155       -0.4767777731        0.8824182335
 C         -2.3163317354        0.4192421666        0.1056124024
 C         -2.3930471004        0.2664115083       -1.2279140716
 C         -3.1382088172        1.1106657696       -2.2332732675
 C         -4.5393413749        1.6054412565       -1.8562602488
 C         -5.3690496104        0.6106520212       -1.0316850355
 H         -6.3411615711        0.4763881734       -1.5095011786
 H         -4.8749747608       -0.3624336511       -1.0177685713
 C         -5.6093949022        1.0812811754        0.4040752189
 H         -5.8678420077        2.1421904784        0.3867291119
 H         -6.4677798576        0.5415718168        0.8109731532
 C         -4.4416377969        0.8647889810        1.3649332412
 H         -4.3083829496       -0.2047107710        1.5485363937
 H         -4.7050172274        1.3241399517        2.3205909071
 C         -3.0866022216        1.4303846711        0.9068252741
 H         -3.2100035291        2.3677146156        0.3691369103
 H         -2.4858491982        1.6129715275        1.8016261021
 H         -4.4618046076        2.5457131927       -1.3126339225
 H         -5.0556393272        1.8262430146       -2.7921910292
 H         -2.5038287807        1.9678422899       -2.4821443782
 H         -3.1984415643        0.4920558325       -3.1324928699
 O         -1.7248305261       -0.7214469409       -1.8878378324
 C         -0.8994338612       -1.6125605246       -1.2246218761
 O         -0.3548457036       -2.4574011631       -1.9615848087
 H          1.3657230692       -0.1122957790        0.3654778324
 C          2.0014224020       -0.9409900267        0.0890520153
 C          1.5600693258       -2.2394502347        0.3128326320
 C          2.3981970005       -3.2926545762       -0.0269139312
 C          3.6261102958       -3.0443615283       -0.6167055673
 C          4.0321206516       -1.7528470045       -0.8965157496
 C          3.2067900425       -0.6908357039       -0.5425981569
 N          3.5783523601        0.6366591231       -0.7995226521
 S          2.4084175985        1.7839532347       -1.1420832488
 O          1.2759409780        1.2318044030       -1.8485874554
 O          3.1352737054        2.8298383844       -1.8339464858
 C          1.9217259789        2.4022152939        0.4540337581
 C          2.9106090052        2.7032360709        1.3701097850
 C          2.5462914871        3.2252495874        2.6003736883
 C          1.2078533156        3.4465347339        2.8880156821
 C          0.2283282306        3.1457117553        1.9549837500
 C          0.5854796999        2.6153278146        0.7253771476
 H         -0.1488195584        2.3476792180       -0.0196869716
 H         -0.8123518200        3.3158151674        2.1790400210
 H          0.9235941465        3.8543685930        3.8451919337
 H          3.3049227390        3.4587932851        3.3298868765
 H          3.9392321327        2.5228474698        1.1065267368
 H          4.4023486353        0.7503591608       -1.3715668625
 H          4.9734470669       -1.5640157009       -1.3896577575
 H          4.2662948796       -3.8713536085       -0.8842446729
 H          2.0844806538       -4.3078591481        0.1526617229
 C          0.1779242049       -2.4155695418        0.8917896536
 H          0.1870983147       -2.0637680402        1.9343151236
 C         -0.3181870675       -3.8452571563        0.8597472853
 C          0.0336946767       -4.7931288557        1.9663230924
 C         -1.3651094900       -4.2705829707        1.8439019862
 H         -2.1422713154       -4.9422950532        1.5114083485
 H         -1.7015230441       -3.5330545028        2.5578442428
 H          0.2155960539       -5.8282986983        1.7198323709
 H          0.6456222011       -4.4157085501        2.7713472741
 H         -0.3910497383       -4.2357054707       -0.1493373020
 O         -1.2988576868       -0.3108529523        2.1240520235
