  62
        -98.94009981
 C          2.4968206090        1.1726439010       -0.0323409179
 C          2.5652575493       -0.0005006883       -0.8217939789
 C          3.9092168994       -0.5670372579       -1.0078135291
 C          4.9688246792        0.0510746617       -0.4551445283
 C          6.3806492093       -0.4548908880       -0.5096608585
 C          6.6932044592       -1.3525720091        0.6961642808
 C          5.6429624593       -2.4337189694        0.9520046496
 H          5.9832594692       -3.0207868601        1.8077864992
 H          4.7032954391       -1.9579164298        1.2422265998
 C          5.3888121696       -3.3674476484       -0.2395778813
 H          6.2171238898       -3.3007085677       -0.9458212110
 H          5.3537798997       -4.3967421487        0.1234328678
 C          4.0732085598       -3.1108334080       -0.9770021213
 H          3.2484029696       -3.0839363687       -0.2600932515
 H          3.8920905100       -3.9510411974       -1.6526326721
 C          4.0197717198       -1.8284768272       -1.8169691702
 H          4.8841163299       -1.7868018865       -2.4827163700
 H          3.1142359199       -1.8701791968       -2.4294365804
 H          7.6666079793       -1.8194147988        0.5355549106
 H          6.7602906189       -0.7237316398        1.5869360813
 H          6.5275715296       -1.0073158572       -1.4355523490
 H          7.0547212592        0.4030919620       -0.4972492476
 O          4.8651040689        1.1933864011        0.2719013826
 C          3.6306227288        1.7718788807        0.5157449729
 O          3.6731807685        2.7979800301        1.2246601238
 H         -1.3922068309        0.9402618408       -0.4385217189
 C         -1.0056761510        0.4807840801        0.4553026708
 C          0.2508124988        0.8112119398        0.9348782113
 C          0.7073731887        0.1907416189        2.0958553909
 C         -0.0713970214       -0.7420140118        2.7516036799
 C         -1.3260377912       -1.0707521815        2.2686483193
 C         -1.7904787710       -0.4592025106        1.1105539298
 N         -3.0433916009       -0.8039029503        0.5801658292
 S         -3.9522454409        0.3590279203       -0.2342622200
 O         -3.4621503106        0.4892118915       -1.5829553397
 O         -4.0143075112        1.5764578796        0.5437560711
 C         -5.5415940908       -0.4499116099       -0.2503102510
 C         -5.7504896304       -1.4683325291       -1.1614773219
 C         -6.9695915903       -2.1269549093       -1.1621580428
 C         -7.9543160806       -1.7584436002       -0.2572116327
 C         -7.7311969909       -0.7329088010        0.6490555583
 C         -6.5130357710       -0.0712694808        0.6566151091
 H         -6.2966393913        0.7355150986        1.3382632899
 H         -8.4999153611       -0.4468573317        1.3486639984
 H         -8.9025805805       -2.2723031904       -0.2605304133
 H         -7.1473814601       -2.9231420187       -1.8669800335
 H         -4.9592727802       -1.7134012584       -1.8508727720
 H         -3.6113534109       -1.3377174509        1.2236204986
 H         -1.9348596212       -1.8019686321        2.7783406586
 H          0.2978338985       -1.2149525125        3.6493698996
 H          1.6875738385        0.4516748287        2.4730942613
 C          1.1504716988        1.8139511106        0.2536411424
 H          1.3457492286        2.6330092500        0.9617906232
 C          0.5611000090        2.3983652016       -1.0120885972
 C         -0.4256079912        3.5226545914       -0.9295633664
 C          0.9614247589        3.7778522520       -1.4365083759
 H          1.0985496191        3.9740367130       -2.4892651757
 H          1.6496324587        4.3125704716       -0.7978844353
 H         -1.2472148410        3.5381830219       -1.6303993166
 H         -0.6855062114        3.8878635205        0.0528812638
 H          0.4215175093        1.6568129523       -1.7909399279
 O          1.5599875295       -0.5513296180       -1.3420632996
