  62
        -98.94109987
 C         -2.0417222125       -0.7246999590       -0.4456693847
 C         -3.1744197492       -1.2896549503        0.1969979987
 C         -4.4515685450       -0.5999440408       -0.0119648770
 C         -4.4916703439        0.5118058788       -0.7678437454
 C         -5.7195002812        1.3181508968       -1.0934612324
 C         -6.1027350519        2.3360212967       -0.0104813683
 C         -6.6970674570        1.7371078661        1.2650091743
 H         -7.1191030983        2.5636273527        1.8402427279
 H         -7.5190997855        1.0700574798        1.0032131199
 C         -5.6849400880        0.9902396610        2.1449891565
 H         -4.6706087588        1.2754439579        1.8558237589
 H         -5.8164075477        1.2915211842        3.1867161243
 C         -5.8047892136       -0.5329660421        2.0957887978
 H         -6.7687234545       -0.8382400522        2.5089277179
 H         -5.0188401735       -0.9590124593        2.7243998001
 C         -5.6636956956       -1.1326955914        0.6906922992
 H         -5.5428710837       -2.2142080193        0.7904382935
 H         -6.5608153099       -0.9335300060        0.1047997526
 H         -5.2190929237        2.9272723242        0.2412055408
 H         -6.8413264108        3.0126899833       -0.4465322391
 H         -5.4989320591        1.8623523924       -2.0144268145
 H         -6.5597146272        0.6481456526       -1.2785100143
 O         -3.3834422338        1.0335508582       -1.3540248119
 C         -2.1304093489        0.4487817158       -1.1967606568
 O         -1.2183395817        1.0676750537       -1.7748072179
 O         -3.1192482217       -2.3250102623        0.9118471144
 C         -0.7060364959       -1.4145343775       -0.2272959406
 C          0.3322184871       -0.4103890617        0.2012126470
 C          0.2775899139        0.1089103344        1.4913709280
 C          1.1958894149        1.0509195957        1.9152142532
 C          2.1889928114        1.4953771017        1.0605430639
 C          2.2512720110        0.9842292020       -0.2287670135
 C          1.3356396404        0.0280758496       -0.6482352767
 H          1.3816261138       -0.3443110046       -1.6596125033
 N          3.2581090152        1.4338399410       -1.1006418934
 S          4.8323777002        1.4421286169       -0.5371816709
 O          5.0413754301        2.5873205235        0.3130944457
 O          5.6620341539        1.3703586090       -1.7190490431
 C          4.9720820916       -0.0574791935        0.4188267691
 C          4.9340849266       -1.2611844983       -0.2571530720
 C          4.9783553661       -2.4398887356        0.4689071122
 C          5.0526722723       -2.3950956241        1.8529538164
 C          5.0930401680       -1.1789823339        2.5164942023
 C          5.0509237959        0.0035523639        1.7949432878
 H          5.0827943181        0.9693453284        2.2716959418
 H          5.1533287837       -1.1473288737        3.5924062611
 H          5.0810084503       -3.3143425724        2.4165015447
 H          4.9508524734       -3.3875319107       -0.0447227294
 H          4.8832772414       -1.2571257032       -1.3341892199
 H          3.1984966310        1.0431358380       -2.0290023939
 H          2.9055765569        2.2405412943        1.3659516740
 H          1.1370796437        1.4471477187        2.9176183613
 H         -0.5046453449       -0.2294936912        2.1570596710
 H         -0.8914501066       -2.0933688938        0.6211199706
 C         -0.2486387278       -2.2907819711       -1.3838220599
 C         -1.2438724673       -3.0602780395       -2.1983420157
 C         -0.4749725326       -1.9359723969       -2.8218349247
 H          0.2984108422       -2.1811585993       -3.5357743292
 H         -0.9916506027       -1.0148751842       -3.0412016927
 H         -1.0034669418       -4.0725765932       -2.4861730128
 H         -2.2907709486       -2.9036800994       -1.9826160055
 H          0.6815358790       -2.8014629830       -1.1527658737
