  62
        -98.93729638
 C          2.0307540346        1.4026741539        0.3790438218
 C          2.2273682925        0.5133352269       -0.7050096726
 C          2.8231586628       -0.7877669801       -0.3657533594
 C          3.1085932672       -1.0789696363        0.9154106693
 C          3.7235180352       -2.3525491712        1.4313731603
 C          2.8699012702       -3.6242138377        1.2572587991
 C          3.1926164933       -4.4337232282       -0.0049938030
 H          4.2136580636       -4.2082014483       -0.3149529150
 H          3.1701973201       -5.4964642918        0.2448959487
 C          2.2419594215       -4.2331890382       -1.1892756475
 H          1.3257266671       -4.7990294823       -1.0077131234
 H          2.7206900019       -4.6579949818       -2.0741184292
 C          1.8383393692       -2.7891194562       -1.4896548587
 H          1.0912292245       -2.4544203118       -0.7662053046
 H          1.3510363633       -2.7659835943       -2.4657856732
 C          3.0007235457       -1.7781557858       -1.4795109714
 H          3.9584112164       -2.2883721306       -1.3896558494
 H          2.9997801671       -1.2044714855       -2.4082851855
 H          1.8140653113       -3.3550754690        1.2787285754
 H          3.0612180768       -4.2559681824        2.1261354069
 H          3.9003726643       -2.1823068235        2.4953434539
 H          4.6940199884       -2.4960418093        0.9513889546
 O          2.8806355273       -0.2019393464        1.9324234489
 C          2.3302728241        1.0451727721        1.6935856486
 O          2.1517216935        1.7326564662        2.7213355222
 O          1.9289690588        0.7833906448       -1.8960669175
 C          1.3991243206        2.7668672359        0.1523838508
 C         -0.0393465971        2.5607226025       -0.2593962555
 C         -0.5609766668        2.9435187930       -1.4867704751
 C         -1.8864799515        2.6822825101       -1.7927500505
 C         -2.7169658977        2.0483965272       -0.8871504165
 C         -2.2045038257        1.6625473746        0.3461465111
 C         -0.8750879664        1.9172490369        0.6464943561
 H         -0.4721852037        1.6178957113        1.6064751974
 N         -3.0329588013        1.0456708589        1.2988272501
 S         -4.0982819943       -0.1661320103        0.8703966224
 O         -5.1427946624        0.3850832390        0.0448035994
 O         -4.5140953837       -0.7499529619        2.1250155918
 C         -3.1537057438       -1.3558555064       -0.0628952817
 C         -2.4075605523       -2.2864466933        0.6334522102
 C         -1.6693067886       -3.2200928322       -0.0747799441
 C         -1.6821072482       -3.2017256402       -1.4613871840
 C         -2.4275998980       -2.2548057653       -2.1453547629
 C         -3.1735194098       -1.3220285122       -1.4423278870
 H         -3.7787117761       -0.5822618881       -1.9392297222
 H         -2.4327382216       -2.2415082621       -3.2232205644
 H         -1.1087691714       -3.9313185803       -2.0110296454
 H         -1.0900943745       -3.9596466592        0.4555396859
 H         -2.4352579735       -2.2771594891        1.7115698141
 H         -2.5603505914        0.8173656439        2.1606932876
 H         -3.7539228845        1.8563235820       -1.1092597599
 H         -2.2804877593        2.9820544117       -2.7519130231
 H          0.0698437859        3.4373873582       -2.2066951166
 H          1.3982438273        3.2652404787        1.1323593969
 C          2.2099727192        3.5998340770       -0.8153954543
 C          2.0726954494        5.0916676231       -0.8042372918
 C          3.3229249008        4.4500355735       -0.2838824028
 H          4.2287659530        4.5356505733       -0.8650662969
 H          3.4898910356        4.4436022240        0.7837491716
 H          2.1216900905        5.6223428752       -1.7428178968
 H          1.3902942108        5.5249705682       -0.0885298761
 H          2.3720411901        3.1069639892       -1.7659041568
