  62
        -98.94575947
 C         -2.5004658709       -0.0418784563       -0.5562558462
 C         -2.4557476743       -0.8228130624        0.6235414359
 C         -1.9928089442       -2.2055010457        0.4575824168
 C         -1.5827035987       -2.6326303970       -0.7497824525
 C         -1.0589566082       -4.0057455629       -1.0731413159
 C          0.4229423772       -4.1975580576       -0.7216243806
 C          0.7232395740       -4.3658491341        0.7687537725
 H          0.0561235040       -5.1179604769        1.1920445350
 H          1.7418227658       -4.7515480351        0.8459892216
 C          0.6287346156       -3.0684526720        1.5833181127
 H          0.6891722642       -2.2092362963        0.9117276249
 H          1.4844024917       -3.0053795898        2.2605592757
 C         -0.6284931047       -2.9406212914        2.4433185125
 H         -0.6107922430       -3.6947146193        3.2344300999
 H         -0.6188790420       -1.9541252146        2.9137920319
 C         -1.9464794593       -3.0820903210        1.6736041149
 H         -2.1065114707       -4.1228937692        1.3917211873
 H         -2.7593321729       -2.7684599540        2.3339342970
 H          0.9841645018       -3.3428615788       -1.1086149701
 H          0.7687561031       -5.0921043410       -1.2455314761
 H         -1.6586115978       -4.7594855513       -0.5612206388
 H         -1.1792990151       -4.1377375242       -2.1506749480
 O         -1.6181452491       -1.8434913341       -1.8574316934
 C         -2.0629139758       -0.5351253752       -1.7852053312
 O         -2.0387624314        0.0766710071       -2.8753476735
 H         -0.3105330060        1.4601382057       -1.0143109125
 C         -0.5195415029        1.9858347056       -0.0923555077
 C         -1.8356453499        2.1245346586        0.3325246409
 C         -2.0866206203        2.8283482115        1.5017217257
 C         -1.0352061388        3.3393991559        2.2449835398
 C          0.2757119755        3.1416729975        1.8535711619
 C          0.5345019525        2.4579871587        0.6693576474
 N          1.8487192600        2.2411351733        0.2242646138
 S          2.1618107171        0.8343153987       -0.6599856937
 O          1.9819268623        1.1308758016       -2.0604420126
 O          1.4098777145       -0.2791182844       -0.1315634462
 C          3.8988660022        0.6158343549       -0.3193411566
 C          4.8118689546        1.4184153028       -0.9776848892
 C          6.1601899752        1.2701552468       -0.6941144498
 C          6.5708899261        0.3275750549        0.2372120758
 C          5.6433608981       -0.4721649690        0.8875689551
 C          4.2928146121       -0.3277580490        0.6100266048
 H          3.5346277649       -0.9304188002        1.0843599493
 H          5.9650326528       -1.2069868671        1.6077807781
 H          7.6209444431        0.2132323280        0.4550462540
 H          6.8843523446        1.8877855682       -1.2002661985
 H          4.4455605779        2.1283179025       -1.7008822833
 H          2.5446419838        2.4091813163        0.9375536679
 H          1.0930608894        3.5103174865        2.4544071346
 H         -1.2410080686        3.8780724148        3.1575868905
 H         -3.1005025584        2.9582144808        1.8423994946
 C         -2.8928893966        1.4264984756       -0.4893076256
 H         -2.8333863600        1.8047030111       -1.5204035109
 C         -4.3033424695        1.6091023697        0.0245969391
 C         -5.0573283644        2.8626264194       -0.3004164254
 C         -5.4418329734        1.5673255478       -0.9481240524
 H         -6.3610521752        1.0895746480       -0.6444156355
 H         -5.1985720037        1.4224342031       -1.9909769866
 H         -4.5564570949        3.6022584172       -0.9067153774
 H         -5.7172760490        3.2764258152        0.4467148884
 H         -4.4581282460        1.1523601703        0.9945396254
 O         -2.7958653389       -0.3984795425        1.7593043287
