  62
        -98.93014186
 C         -2.4296544312       -1.2502306407       -0.1963692598
 C         -2.3666409264        0.0450947613        0.3706525867
 C         -3.6594668038        0.6653745739        0.7217562093
 C         -4.7989271306       -0.0232954115        0.5442184200
 C         -6.2115583770        0.3921566450        0.8713850987
 C         -6.6305707111        1.8249428649        0.5145275396
 C         -5.9650628389        2.4026524176       -0.7429979725
 H         -5.4539054187        1.6115172591       -1.2943673128
 H         -6.7374785447        2.8091305758       -1.3984564722
 C         -4.9753372331        3.5280132475       -0.4318101986
 H         -4.8259166906        4.1244372346       -1.3350828708
 H         -5.4154144258        4.1828392860        0.3233672497
 C         -3.5948714019        3.0759934215        0.0434032715
 H         -3.0307960126        3.9650456038        0.3361889635
 H         -3.0503336210        2.6142232530       -0.7853964525
 C         -3.5902665012        2.0815213615        1.2162120246
 H         -2.6300394191        2.1738242022        1.7314584386
 H         -4.3868650032        2.3017500793        1.9227086509
 H         -6.4279025617        2.4847893983        1.3568892531
 H         -7.7133142589        1.8115763775        0.3792208667
 H         -6.3741930758        0.2278234499        1.9405036665
 H         -6.8460977094       -0.3187024306        0.3367833052
 O         -4.8075930550       -1.2927055231        0.0463510910
 C         -3.6412002490       -1.9303458553       -0.3364885602
 O         -3.8099332206       -3.0876819992       -0.7691491967
 O         -1.2938202332        0.6651875822        0.5910926595
 C         -1.1816093998       -1.9961964780       -0.6344486059
 C         -0.0959883684       -1.8590489049        0.4051752651
 C         -0.3522020732       -2.3140366630        1.6962626239
 C          0.6041606150       -2.2019439617        2.6857502021
 C          1.8379167785       -1.6410902319        2.4070832324
 C          2.1103744568       -1.1981665815        1.1180099965
 C          1.1467826256       -1.3133823405        0.1256195993
 H          1.3715732458       -0.9376291844       -0.8573138785
 N          3.3828972227       -0.6829174891        0.8105568724
 S          3.6073059446        0.5218464939       -0.3463915798
 O          2.9193448280        1.7366252794        0.0299449398
 O          3.3103773868       -0.0110182274       -1.6516939160
 C          5.3704371705        0.7438440911       -0.1844725130
 C          6.2047059993       -0.1975788503       -0.7571840130
 C          7.5755104234       -0.0528703483       -0.6167614083
 C          8.0874967239        1.0251756238        0.0902605059
 C          7.2384907925        1.9634024156        0.6572046566
 C          5.8659848994        1.8234393856        0.5211595867
 H          5.1682382620        2.5320944548        0.9377906882
 H          7.6393049371        2.8020731887        1.2033778709
 H          9.1549647926        1.1361271165        0.1977012294
 H          8.2388271707       -0.7789553227       -1.0584042270
 H          5.7615815814       -1.0131331086       -1.3042606512
 H          3.9151846636       -0.4622551665        1.6418594763
 H          2.5834238101       -1.5464910250        3.1822179426
 H          0.3870978920       -2.5482267731        3.6853106137
 H         -1.3216768797       -2.7423342162        1.9150947988
 H         -1.4817318498       -3.0573702554       -0.6663361847
 C         -0.7119358383       -1.6358903864       -2.0362724547
 C         -1.6661880346       -1.1326851161       -3.0766457695
 C         -0.6268375396       -0.2164500837       -2.5076569155
 H          0.2132886996        0.0677792684       -3.1254433888
 H         -0.9342138070        0.5561831876       -1.8202244221
 H         -1.5472397352       -1.4811093784       -4.0915193433
 H         -2.6955097484       -0.9841548560       -2.7832929346
 H          0.0663231168       -2.3070855741       -2.3877330344
