  62
        -98.93863963
 C         -2.8222394691       -0.0470146963       -0.1285942598
 C         -2.1596100865        0.7238603518       -1.1150151974
 C         -1.9500825614        2.1431298745       -0.7892683355
 C         -2.3925469906        2.6308974269        0.3821827305
 C         -2.2254025071        4.0490988333        0.8437927968
 C         -0.9547419077        4.2308483760        1.6843209718
 C          0.3092377875        3.6507430214        1.0487275751
 H          0.2465805495        2.5595431119        1.0356883350
 H          1.1446927025        3.9064294908        1.7052381256
 C          0.6050512693        4.1562127073       -0.3701271631
 H          1.6724512913        4.3759852212       -0.4418585172
 H          0.0682796199        5.0879929188       -0.5542248867
 C          0.2796773836        3.1498024899       -1.4760074444
 H          0.6851281263        2.1726101683       -1.1989507144
 H          0.7785735080        3.4737853298       -2.3935769283
 C         -1.2103422546        2.9748696453       -1.7986143939
 H         -1.2883231744        2.4353035475       -2.7470676011
 H         -1.6813124788        3.9525720811       -1.9190706840
 H         -1.1038186133        3.7409979343        2.6495535056
 H         -0.8147136762        5.2990225679        1.8634693068
 H         -3.0913235122        4.3121396743        1.4543516212
 H         -2.1944138002        4.7039919191       -0.0250267558
 O         -3.0384494284        1.8661559790        1.3000671531
 C         -3.2353955307        0.5144717544        1.0829041984
 O         -3.8036366730       -0.0762402244        2.0243417373
 O         -1.7563726510        0.2722950674       -2.2195557621
 C         -3.0592356375       -1.5459093956       -0.2605052644
 C         -1.8292894440       -2.2624329089        0.2353494994
 C         -1.8814092011       -3.1851048702        1.2723986362
 C         -0.7191969752       -3.7433310557        1.7793845304
 C          0.5177242402       -3.3794710536        1.2762542004
 C          0.5747599116       -2.4688261355        0.2312763683
 C         -0.5882262784       -1.9325894858       -0.2924963051
 H         -0.5300147919       -1.2185596041       -1.1008315527
 N          1.8419260294       -2.0175651896       -0.2403721130
 S          2.3517503459       -0.7443839507        0.7640399316
 O          2.5769550314       -1.2915340869        2.0783939605
 O          1.4197753938        0.3590962345        0.6827354062
 C          3.9080723801       -0.2975231515        0.0184825044
 C          3.9995710546        0.8564542398       -0.7347470143
 C          5.2098799520        1.1712905620       -1.3330876102
 C          6.2991651195        0.3288823028       -1.1714767565
 C          6.1909224526       -0.8268622360       -0.4118378112
 C          4.9847167856       -1.1465111702        0.1901543638
 H          4.8543591433       -2.0281753958        0.7950898295
 H          7.0409618063       -1.4781179186       -0.2875699984
 H          7.2390877774        0.5761015760       -1.6391627104
 H          5.2961254690        2.0703009089       -1.9218861587
 H          3.1280252097        1.4849897703       -0.8291576244
 H          1.7438528083       -1.6280268618       -1.1717866977
 H          1.4323016859       -3.7676464263        1.6932782133
 H         -0.7769442717       -4.4528466413        2.5908946931
 H         -2.8386378277       -3.4409400517        1.7033340521
 H         -3.8817325643       -1.7723205228        0.4357527586
 C         -3.5034299885       -1.9698572765       -1.6533025507
 C         -2.6974578919       -2.8672968932       -2.5398515960
 C         -3.9421101191       -3.3852544312       -1.8888684652
 H         -4.8147725833       -3.5628814487       -2.4986031776
 H         -3.8240444222       -4.0804491041       -1.0711053933
 H         -2.7094517870       -2.6623872522       -3.5994516159
 H         -1.7474219705       -3.2273956471       -2.1771957291
 H         -4.0762125503       -1.1945355643       -2.1506343287
