  62
        -98.94242385
 C         -2.1293735399       -0.2727269445        0.4860132973
 C         -1.4083121604        0.7106011292        1.2012915677
 C         -1.5545392199        2.1046840565        0.7516607515
 C         -2.3101624759        2.3677059213       -0.3282426847
 C         -2.6807784386        3.6967268713       -0.9420872459
 C         -1.6332636047        4.8127499754       -0.9606157195
 C         -0.2049378738        4.3480266610       -1.2783514822
 H         -0.2107416280        3.3095973834       -1.6176409723
 H          0.1955649125        4.9537423674       -2.0936882813
 C          0.7433806288        4.4699498998       -0.0846596707
 H          1.7715396628        4.4713648317       -0.4551756486
 H          0.5694472873        5.4239982978        0.4185407824
 C          0.6304058792        3.3301766624        0.9240026573
 H          1.3411665364        3.5177833840        1.7327920267
 H          0.9302113084        2.4009749757        0.4321728206
 C         -0.7699943950        3.1237374144        1.5287929186
 H         -0.6495178247        2.7059337065        2.5321792959
 H         -1.3053434148        4.0666702939        1.6119807532
 H         -1.6372850095        5.3367280227       -0.0060944482
 H         -1.9589125602        5.5314397973       -1.7151484931
 H         -3.5771572020        4.0594359304       -0.4284732819
 H         -2.9756181337        3.4605397417       -1.9680352550
 O         -2.9345068179        1.3790843961       -1.0309243484
 C         -2.8440316256        0.0459806603       -0.6667815133
 O         -3.4434111896       -0.7323189936       -1.4341800934
 O         -0.6804320237        0.4379457131        2.1952123256
 C         -2.0041851776       -1.7296138977        0.9066589204
 C         -1.1724309194       -2.4327021591       -0.1378490192
 C         -1.6144809490       -3.4911814066       -0.9180409254
 C         -0.8037398827       -3.9973943851       -1.9209341762
 C          0.4387442651       -3.4489023920       -2.1792405736
 C          0.8956909830       -2.3957849943       -1.3916230758
 C          0.1036634876       -1.9287185328       -0.3587418472
 H          0.4557170852       -1.1159493436        0.2542866779
 N          2.1477099715       -1.8114663680       -1.6202769248
 S          2.4670112309       -0.2002857810       -1.2766856270
 O          1.2675849272        0.6010883850       -1.2420792722
 O          3.4562711617        0.1799804059       -2.2650367641
 C          3.2732235211       -0.2767786647        0.3116579991
 C          2.6178248869        0.0474318196        1.4817464721
 C          3.3054907638       -0.0502188991        2.6826979976
 C          4.6259598494       -0.4688128414        2.6972689758
 C          5.2719378973       -0.7910333304        1.5127907330
 C          4.5915385150       -0.6947653262        0.3110996838
 H          5.0583363083       -0.9199315975       -0.6333937999
 H          6.3000933509       -1.1151161667        1.5231865362
 H          5.1531380760       -0.5419486196        3.6354500889
 H          2.7938841089        0.2014955015        3.5980138699
 H          1.5877850765        0.3697590034        1.4659514597
 H          2.6130095214       -2.1139829955       -2.4626931895
 H          1.0502866883       -3.8245607732       -2.9856010378
 H         -1.1567947765       -4.8177971418       -2.5275944395
 H         -2.5959588357       -3.9060315557       -0.7580536114
 H         -1.4339311009       -1.7152140506        1.8467201819
 C         -3.3542158599       -2.3618158281        1.1583063388
 C         -3.4543829809       -3.5788619472        2.0273093963
 C         -3.9645401984       -2.2601587226        2.5230027580
 H         -5.0314125820       -2.1133787412        2.5993301185
 H         -3.3981272179       -1.7453651376        3.2851954880
 H         -4.1727464908       -4.3410430980        1.7664651699
 H         -2.5404327725       -3.9618446464        2.4551887963
 H         -4.0207711182       -2.2829267393        0.3076510216
