  62
        -98.93419818
 C         -1.9889174203       -0.0480202997       -0.5011622601
 C         -2.7777902802        0.6347861209        0.4548588895
 C         -4.1156803403        0.0670172212        0.7215441399
 C         -4.4942856604       -1.0574305491        0.0919189505
 C         -5.8185771605       -1.7632172889        0.1880327310
 C         -6.7681632005       -1.2907016595       -0.9259947193
 C         -7.5932534103       -0.0498318992       -0.5866100299
 H         -8.1168191103        0.2510415303       -1.4970777301
 H         -8.3509335803       -0.3147590587        0.1538839502
 C         -6.7930561602        1.1449945310       -0.0615774606
 H         -5.8835805902        1.2663980906       -0.6527559607
 H         -7.3966829501        2.0426479010       -0.2092534611
 C         -6.4365997402        1.0253336718        1.4276275994
 H         -7.0183699702        0.2162453221        1.8688922299
 H         -6.7362697701        1.9389722921        1.9453028989
 C         -4.9457400402        0.8146246818        1.7296345195
 H         -4.4533017501        1.7874434119        1.8260634789
 H         -4.8452203802        0.3179433024        2.7005355098
 H         -6.1674878605       -1.1011417200       -1.8194404794
 H         -7.4596361606       -2.1014433596       -1.1645170188
 H         -5.6150525506       -2.8264203390        0.0436599816
 H         -6.2617627004       -1.6220865583        1.1692818009
 O         -3.6915679905       -1.7002071597       -0.8014885791
 C         -2.4387145305       -1.2168574500       -1.1205893894
 O         -1.8233702406       -1.9008411205       -1.9643143691
 H          1.5966633195       -1.0120976307       -1.5878172597
 C          1.5231661196       -0.8696760501       -0.5179829697
 C          0.4434444497       -0.1738226497        0.0051891599
 C          0.3573333797       -0.0134046289        1.3847209998
 C          1.3253925497       -0.5475468785        2.2153436901
 C          2.4005423596       -1.2431344689        1.6898523704
 C          2.4990381196       -1.4020528497        0.3145349505
 N          3.6173764495       -2.0736833801       -0.2220172391
 S          5.1026755995       -1.3736057600        0.1308137204
 O          6.0080832995       -1.8499753907       -0.8897542593
 O          5.4590432696       -1.6779068293        1.4927661106
 C          4.8015771797        0.3743803899       -0.0536238806
 C          4.7678498897        0.8995955492       -1.3303646309
 C          4.4337256598        2.2335127891       -1.4982138016
 C          4.1260223200        3.0119750698       -0.3927782020
 C          4.1672707299        2.4704192605        0.8822606083
 C          4.5080160698        1.1386802906        1.0576137190
 H          4.5542081498        0.6819937811        2.0323168793
 H          3.9278822000        3.0786726710        1.7395631879
 H          3.8491076501        4.0452990697       -0.5269012426
 H          4.4049667999        2.6596912386       -2.4882573518
 H          5.0141167296        0.2618649187       -2.1645235505
 H          3.5425314494       -2.2406881306       -1.2156213390
 H          3.1686826296       -1.6597022386        2.3213712806
 H          1.2435457797       -0.4195385579        3.2840892300
 H         -0.4731506302        0.5403835015        1.7949171995
 C         -0.5989358603        0.4072020699       -0.9145232304
 H         -0.4424567204       -0.0349901607       -1.9110767602
 C         -0.4781208502        1.9188412098       -1.0647123913
 C          0.4224813499        2.7670582602       -0.2221924918
 C          0.7718351499        2.5033591194       -1.6535969516
 H          0.6807614599        3.3050494890       -2.3703366121
 H          1.5902199098        1.8257181292       -1.8470007013
 H          0.0644726400        3.7463737004        0.0553124477
 H          1.0147324399        2.2867513606        0.5405089685
 H         -1.4155336601        2.3717222397       -1.3689752915
 O         -2.4085722801        1.6710643412        1.0635945289
