  62
        -98.93760213
 C         -1.8487422111       -0.1587832760       -0.0849075750
 C         -2.8603430633       -1.0735732275        0.2919488828
 C         -4.1914791205       -0.5015874327        0.5412495066
 C         -4.3658313892        0.8269328152        0.4177270496
 C         -5.6764512946        1.5484858325        0.5551899863
 C         -6.5187070895        1.3555370536       -0.7222232597
 C         -7.8075263468        0.5598336256       -0.5139458743
 H         -8.1982270003        0.3065739514       -1.5018438277
 H         -8.5439378145        1.1994243300       -0.0228321229
 C         -7.6748551828       -0.7223010293        0.3135628426
 H         -8.5871515588       -1.3004073737        0.1517461591
 H         -7.6494746926       -0.4727475309        1.3753418166
 C         -6.4659031938       -1.6090243207       -0.0114369652
 H         -6.1242087891       -1.4347760292       -1.0319571114
 H         -6.7856465804       -2.6516598701        0.0428981098
 C         -5.2786111253       -1.4538018974        0.9572851095
 H         -4.7789395971       -2.4221822577        1.0542572301
 H         -5.6496203365       -1.1748980475        1.9473793935
 H         -5.8977437957        0.8564514349       -1.4692280666
 H         -6.7819001104        2.3305723606       -1.1351393070
 H         -5.4517354610        2.6044504901        0.7063369417
 H         -6.2118270887        1.1774423240        1.4263031319
 O         -3.3640989469        1.6761363036        0.0693163014
 C         -2.0831360024        1.2114484755       -0.1930180369
 O         -1.2680293098        2.1004827548       -0.5028277822
 O         -2.6569782842       -2.3112354946        0.4187831036
 C         -0.4560154685       -0.6893206828       -0.3773786115
 C          0.5440044233       -0.0426073789        0.5476978903
 C          0.3278546139       -0.1267104768        1.9218781259
 C          1.1955281591        0.4724660535        2.8126134740
 C          2.3072247048        1.1582458784        2.3536291143
 C          2.5370077438        1.2426928065        0.9866811496
 C          1.6616498292        0.6378241433        0.0928261376
 H          1.8584193403        0.7362970596       -0.9609627613
 N          3.6497724937        1.9444173560        0.4947006610
 S          4.6032119135        1.2771185750       -0.7047499032
 O          5.8269942301        2.0469118187       -0.6645392129
 O          3.9004067026        1.2636380239       -1.9614575063
 C          4.9117634940       -0.3864776595       -0.1417321968
 C          5.8715981628       -0.5776042591        0.8333930073
 C          6.0754856530       -1.8532312660        1.3330704266
 C          5.3132120699       -2.9098464439        0.8578471629
 C          4.3546064897       -2.7013080097       -0.1213738199
 C          4.1485435940       -1.4277602784       -0.6283846022
 H          3.4157471587       -1.2271766550       -1.3921426448
 H          3.7641611680       -3.5243641006       -0.4913765102
 H          5.4682566280       -3.9024012824        1.2504732491
 H          6.8236997860       -2.0198573149        2.0911455778
 H          6.4495975637        0.2685552341        1.1679935218
 H          4.2219080933        2.3689774256        1.2099966206
 H          2.9830000938        1.6353291540        3.0470975340
 H          1.0088690356        0.4048934443        3.8737523277
 H         -0.5420234781       -0.6607372089        2.2792948991
 H         -0.5006458878       -1.7626562495       -0.1404936249
 C         -0.1290361398       -0.5294503440       -1.8464696380
 C          0.7973140911       -1.4945277971       -2.5214441273
 C         -0.6700272415       -1.5274745288       -2.8244161825
 H         -1.0094408430       -1.1740511412       -3.7865491832
 H         -1.2555962903       -2.3436060137       -2.4268657948
 H          1.4727258014       -1.1182611485       -3.2758803765
 H          1.1997176286       -2.2978683809       -1.9227506251
 H         -0.1045093706        0.5081125237       -2.1616201382
