  62
        -98.93071165
 C         -2.5181543314       -1.2865341985       -0.2465290227
 C         -2.3255850028        0.0913895226        0.0075943961
 C         -3.5194701386        0.8682282853        0.4105442855
 C         -4.6974083504        0.2333004006        0.5487821096
 C         -6.0405600972        0.8112530300        0.9091089027
 C         -6.6922631540        1.5721863683       -0.2559361975
 C         -5.7560568040        2.5114938703       -1.0110316192
 H         -4.9181112259        1.9377135211       -1.4107676667
 H         -6.3082480566        2.9159110897       -1.8633949162
 C         -5.2227266456        3.6888544390       -0.1981752237
 H         -6.0639246897        4.2707111334        0.1848615606
 H         -4.6620087778        4.3286605624       -0.8843867671
 C         -4.3032896194        3.3326834917        0.9728091504
 H         -4.8728152683        2.9905458436        1.8328190045
 H         -3.7990721316        4.2527856852        1.2826672823
 C         -3.2057494013        2.3277038332        0.6372732503
 H         -2.6693401628        2.6676972175       -0.2562639102
 H         -2.4582661021        2.3436004957        1.4402601638
 H         -7.5414363733        2.1361120649        0.1337362399
 H         -7.0738278100        0.8370696096       -0.9688002896
 H         -5.9517936956        1.4470098177        1.7849841514
 H         -6.6813552383       -0.0326075280        1.1747119676
 O         -4.8268853579       -1.1068088623        0.3288700995
 C         -3.7620247739       -1.8938783276       -0.0578351909
 O         -4.0392671892       -3.1024479367       -0.1943300474
 O         -1.2160995633        0.6768591582       -0.1008177436
 C         -1.3763319639       -2.2030545254       -0.6534040742
 C         -0.1864281644       -1.9625897074        0.2426002948
 C         -0.2977341843       -2.2819837179        1.5932133499
 C          0.7552466858       -2.0607244782        2.4590032011
 C          1.9450781410       -1.5236190925        1.9983375455
 C          2.0643581071       -1.1948322625        0.6554819695
 C          1.0022365812       -1.4190414556       -0.2138694008
 H          1.0970315345       -1.1353525287       -1.2505012550
 N          3.2732299326       -0.6756690451        0.1522996068
 S          4.1554523059        0.4480129864        1.0484401716
 O          4.7081947808       -0.2124111352        2.2046341918
 O          3.3684320212        1.6324641864        1.3130195050
 C          5.4582365025        0.8094073066       -0.1126179815
 C          6.5113279129       -0.0794919854       -0.2163696672
 C          7.5165893436        0.1771999157       -1.1347413406
 C          7.4524160907        1.3119056091       -1.9299622485
 C          6.3899073984        2.1953370637       -1.8135999910
 C          5.3800608573        1.9435119716       -0.8978646500
 H          4.5391463695        2.6062525092       -0.7685088653
 H          6.3439758512        3.0778945403       -2.4312355789
 H          8.2365528605        1.5106400482       -2.6434187532
 H          8.3453163358       -0.5060786670       -1.2271568688
 H          6.5229181545       -0.9425532171        0.4283161199
 H          3.1619054164       -0.3371552594       -0.7944754735
 H          2.7695548249       -1.3409774828        2.6675837405
 H          0.6525980493       -2.3072763894        3.5055451788
 H         -1.2294699490       -2.6951359904        1.9569247561
 H         -1.7479842805       -3.2200677503       -0.4460837515
 C         -1.0370418995       -2.1645603732       -2.1358286329
 C         -2.1061845864       -1.9209663819       -3.1578078398
 C         -1.0346882210       -0.8981450254       -2.9362723956
 H         -0.2799311381       -0.7780320746       -3.7001949215
 H         -1.2900537301        0.0175509940       -2.4273520861
 H         -2.0875967681       -2.4996077219       -4.0690094370
 H         -3.1017802834       -1.7083664645       -2.7958598306
 H         -0.2858916581       -2.9051006080       -2.3939022096
