  62
        -98.94177926
 C         -2.4828909196       -0.9088421711        0.2990576001
 C         -1.9709727896       -0.0783458412       -0.7287654500
 C         -2.3620526299        1.3365593088       -0.6559670704
 C         -3.1507620302        1.7694927288        0.3430707294
 C         -3.6312953306        3.1808984887        0.5448913290
 C         -2.6259309709        4.0787562091        1.2799467590
 C         -1.3952472208        4.4835564092        0.4668076391
 H         -1.7147595307        4.9084323189       -0.4850556110
 H         -0.8907156811        5.2749176194        1.0245005591
 C         -0.3976781505        3.3436386394        0.2145167496
 H         -0.5958837805        2.5254867795        0.9113150797
 H          0.6175100093        3.6922793896        0.4156870097
 C         -0.4120483001        2.7943016591       -1.2116253303
 H          0.3011102800        1.9681039492       -1.2673306400
 H         -0.0845594102        3.5711293790       -1.9049971104
 C         -1.7784383599        2.2709186687       -1.6717709905
 H         -2.4582300301        3.1003598885       -1.8640949208
 H         -1.6353989096        1.7097262485       -2.5980750903
 H         -3.1558849112        4.9877202591        1.5739413887
 H         -2.3080848910        3.5707475294        2.1937017992
 H         -3.8826832205        3.6251211485       -0.4184000211
 H         -4.5403570607        3.1181007487        1.1470516688
 O         -3.6200121702        0.9401436789        1.3139419895
 C         -3.2724325599       -0.4018833610        1.3338530698
 O         -3.7172977800       -1.0292888009        2.3165629199
 O         -1.2245148093       -0.4785713312       -1.6571581498
 C         -2.1221165093       -2.3820250910        0.3785035705
 C         -0.6459487092       -2.5633047707        0.1154581708
 C         -0.1316757289       -3.4094111908       -0.8572782490
 C          1.2370778512       -3.5299867305       -1.0247756487
 C          2.1192452109       -2.8163425802       -0.2350729087
 C          1.6161903505       -1.9535440601        0.7319981111
 C          0.2440706605       -1.8434992103        0.9040635508
 H         -0.1493584098       -1.1777899403        1.6635057706
 N          2.4815824002       -1.2314541797        1.5687777211
 S          3.9134801501       -0.5361722195        1.0740040312
 O          4.7745200005       -1.5539860794        0.5258511616
 O          4.4020351898        0.1541188209        2.2457256012
 C          3.5211461501        0.6597546702       -0.1907574391
 C          3.2536199505        0.2321281098       -1.4761806091
 C          2.9701404904        1.1773348296       -2.4492784293
 C          2.9666165301        2.5254453896       -2.1259398896
 C          3.2361484997        2.9387754400       -0.8303603197
 C          3.5105823798        1.9983674802        0.1490978106
 H          3.7334605195        2.2746416505        1.1671655706
 H          3.2354112495        3.9881514200       -0.5824209399
 H          2.7522449201        3.2572281894       -2.8885124098
 H          2.7518112507        0.8567182593       -3.4551414593
 H          3.2736791307       -0.8213305202       -1.7003393289
 H          2.0114118099       -0.6363685997        2.2335862009
 H          3.1863789209       -2.9167591600       -0.3502690884
 H          1.6247831815       -4.1929632606       -1.7836585585
 H         -0.7993621886       -3.9612550111       -1.4976949990
 H         -2.3088213295       -2.6650696808        1.4283357905
 C         -3.0027873490       -3.2849596713       -0.4726948395
 C         -4.4044725390       -2.8877084917       -0.8252829099
 C         -3.3535186788       -2.9515202417       -1.8904110597
 H         -3.4034699485       -3.7565203819       -2.6090742895
 H         -2.9701168689       -2.0279835217       -2.2936637998
 H         -5.1707723788       -3.6482546219       -0.8082206299
 H         -4.7483618593       -1.9167597917       -0.4989389601
 H         -2.8495538388       -4.3345292912       -0.2407599593
