  62
        -98.94022786
 C         -1.7958025700       -1.0652221900       -0.2333591189
 C         -3.1442037999       -1.3674022399        0.0629196214
 C         -4.1444086900       -0.3621067802       -0.3376447693
 C         -3.7305227301        0.7603501594       -0.9514868601
 C         -4.5701943902        1.9292055190       -1.3878822509
 C         -4.6168798203        3.0064530198       -0.2905778416
 C         -5.7260643902        2.8247547404        0.7447019386
 H         -5.5697994902        3.5745023610        1.5237158580
 H         -6.6908448902        3.0340182600        0.2778669085
 C         -5.7890988101        1.4423252709        1.3990789695
 H         -4.7805230800        1.1058957811        1.6460513197
 H         -6.3359180200        1.5407394115        2.3388887395
 C         -6.4893773200        0.3919735702        0.5242849403
 H         -6.9990436301        0.8937776496       -0.2979762600
 H         -7.2645361200       -0.1078468994        1.1089912907
 C         -5.5754787600       -0.7103115201       -0.0296995589
 H         -5.5105096999       -1.5272056096        0.6961476716
 H         -6.0319627700       -1.1325317108       -0.9314131386
 H         -3.6449803702        3.0178470402        0.2093046983
 H         -4.7530182204        3.9813536794       -0.7629522923
 H         -4.0811392103        2.3506129784       -2.2685861812
 H         -5.5690852302        1.6053180787       -1.6643329106
 O         -2.4187677902        1.0103746493       -1.2196999803
 C         -1.4222517301        0.1141262996       -0.8754043997
 O         -0.2724167101        0.4766070694       -1.1860027000
 O         -3.4978571198       -2.4269691095        0.6482050722
 C         -0.7152899199       -2.0620820496        0.1425717818
 C          0.3289748101       -1.4004063490        1.0062967213
 C         -0.0806230099       -0.6990574782        2.1385766108
 C          0.8398230501       -0.0741553875        2.9562845503
 C          2.1911128001       -0.1287379676        2.6594116203
 C          2.6118221101       -0.8329313584        1.5389837007
 C          1.6840933201       -1.4734111691        0.7268940112
 H          2.0428161201       -2.0078977896       -0.1360503884
 N          3.9803782501       -0.9334140385        1.2254894307
 S          4.5357880200       -0.4577889096       -0.2806194896
 O          3.8915749300       -1.2294590903       -1.3105196590
 O          5.9745990100       -0.5838780594       -0.1932708096
 C          4.1023815199        1.2684122003       -0.4030851808
 C          5.0799060398        2.2099624606       -0.1414681915
 C          4.7477247197        3.5538828505       -0.1800120925
 C          3.4451204597        3.9327966102       -0.4692172327
 C          2.4761658897        2.9750477500       -0.7235865720
 C          2.8009178198        1.6270928400       -0.6913876510
 H          2.0519388999        0.8763161598       -0.8887650604
 H          1.4591774997        3.2555581797       -0.9481187921
 H          3.1829856796        4.9788221402       -0.4978880534
 H          5.5013159197        4.2995632107        0.0162550070
 H          6.0794292598        1.8684416008        0.0746667287
 H          4.5885156301       -0.5519971480        1.9369698304
 H          2.9127280201        0.3652465429        3.2923554199
 H          0.5045088401        0.4664836331        3.8284732599
 H         -1.1370339699       -0.6501581981        2.3658332108
 H         -1.2221060198       -2.8326315493        0.7427069623
 C         -0.1493929399       -2.7140143505       -1.1015632478
 C          0.4123976302       -4.1016921904       -1.0370734768
 C         -0.8935650598       -3.8529895110       -1.7285329469
 H         -0.9289945599       -3.9151657318       -2.8059321969
 H         -1.8012946898       -4.1787383907       -1.2416932367
 H          1.2790567102       -4.3323507208       -1.6384976767
 H          0.3925141203       -4.6049431497       -0.0821355265
 H          0.3282601700       -2.0042035109       -1.7689964783
