  62
        -98.93971566
 C         -2.4426882044        0.2247916065       -0.3426250554
 C         -3.6174098873       -0.1053390757       -1.0598713928
 C         -4.7479379432       -0.5869622830       -0.2555048169
 C         -4.5996970664       -0.7142800600        1.0759898307
 C         -5.6823438509       -1.1467055362        2.0210787055
 C         -6.4638581409        0.0599031939        2.5595588272
 C         -6.9309661219        1.0278938139        1.4724977958
 H         -7.4972643620        1.8213209970        1.9649551908
 H         -6.0573926468        1.4947335620        1.0118317079
 C         -7.7961292390        0.3851579161        0.3794546802
 H         -8.1876375997       -0.5702374561        0.7305749664
 H         -8.6524127662        1.0339721334        0.1835949689
 C         -7.0797270245        0.1785768097       -0.9563643370
 H         -7.8308209456       -0.0734120133       -1.7097819774
 H         -6.6062973648        1.1135092600       -1.2665940132
 C         -6.0191613218       -0.9293945025       -0.9805997344
 H         -6.4464176790       -1.8564634040       -0.5928071289
 H         -5.7337320601       -1.0931802748       -2.0239848787
 H         -7.3269260724       -0.3089121984        3.1167563292
 H         -5.8204731451        0.6073626152        3.2521805001
 H         -6.3558288784       -1.8292135589        1.5063765711
 H         -5.2179966612       -1.6709601167        2.8580183112
 O         -3.4466414809       -0.4144046289        1.7260672787
 C         -2.3417610497        0.0678671615        1.0397688896
 O         -1.3578165602        0.3149897171        1.7617634091
 O         -3.7137956339       -0.0055453340       -2.3130546325
 C         -1.2354191204        0.7339438228       -1.1104675991
 C         -0.0896347345       -0.2326779196       -0.9380981270
 C         -0.2711149126       -1.5532054891       -1.3424976591
 C          0.7390821192       -2.4832774818       -1.1952443456
 C          1.9527751175       -2.1202881899       -0.6372148477
 C          2.1467589268       -0.8063761021       -0.2360474076
 C          1.1328071240        0.1314076230       -0.3985695315
 H          1.2989726183        1.1486408840       -0.0801802957
 N          3.3691083681       -0.4307748338        0.3511039442
 S          4.7877308042       -0.9736480386       -0.3870462914
 O          4.7301349691       -0.7296489487       -1.8116051905
 O          5.0193633951       -2.3407286724        0.0065005187
 C          5.9940515742        0.0894701450        0.3807186216
 C          6.4844097433       -0.2541870502        1.6261642428
 C          7.4020744388        0.5842182537        2.2387130166
 C          7.8105080582        1.7458799634        1.6002453430
 C          7.3101881140        2.0767806518        0.3498892204
 C          6.3911740760        1.2433053113       -0.2680561219
 H          5.9834877959        1.4559885094       -1.2433936925
 H          7.6321654711        2.9788945331       -0.1449784424
 H          8.5258437379        2.3960297006        2.0787544089
 H          7.7953354904        0.3293629922        3.2096068876
 H          6.1444845173       -1.1704073005        2.0799877561
 H          3.4128226964        0.5635173014        0.5290924978
 H          2.7500931455       -2.8355186891       -0.5153219557
 H          0.5825812417       -3.5030729902       -1.5144291927
 H         -1.2209374152       -1.8401260700       -1.7735175782
 H         -1.5354083068        0.7175500323       -2.1685121983
 C         -0.9101389395        2.1591455129       -0.7182912668
 C         -0.1419174427        3.0382390394       -1.6584591781
 C         -1.6021666959        3.2827991468       -1.4275179859
 H         -1.8966582733        4.1496216412       -0.8551084285
 H         -2.2965234517        3.0220635118       -2.2128262739
 H          0.5653238512        3.7423173435       -1.2466290636
 H          0.1585937888        2.6136230439       -2.6044934487
 H         -0.7391729076        2.2718874890        0.3463695072
