  62
        -98.93830474
 C         -2.0737607042       -1.0783026603        0.3110590098
 C         -2.1363682904       -0.1600020943       -0.7664818098
 C         -2.3536289547        1.2458208294       -0.3895661844
 C         -2.4352484169        1.5975140426        0.9046126777
 C         -2.6114541334        2.9938504251        1.4377856518
 C         -4.0680007665        3.4776581083        1.4615485353
 C         -4.6674645187        3.8079633851        0.0940155123
 H         -5.6045780973        4.3380371361        0.2749765769
 H         -4.0028688488        4.4905993900       -0.4362366835
 C         -4.9554152690        2.5824834923       -0.7843554460
 H         -5.9510564237        2.6748698428       -1.2238227866
 H         -4.9597523652        1.6832432066       -0.1642147430
 C         -3.9693179692        2.3815600874       -1.9352311106
 H         -4.2443543990        1.4683700266       -2.4689349713
 H         -4.0459841517        3.2169718724       -2.6346229070
 C         -2.5057790458        2.2475881786       -1.4943885456
 H         -1.9164528267        1.8922035236       -2.3438178136
 H         -2.1133036698        3.2161010235       -1.1836595602
 H         -4.6786668128        2.7173353364        1.9536933288
 H         -4.1003179313        4.3801219819        2.0762264924
 H         -2.0027717725        3.6849369510        0.8534695179
 H         -2.2327933618        2.9818513287        2.4622272911
 O         -2.3484096212        0.6890313636        1.9130628913
 C         -2.1573540089       -0.6531969139        1.6395852562
 O         -2.0933908425       -1.3762911603        2.6560923764
 O         -2.0265746035       -0.4670395706       -1.9810719634
 C         -1.7776756815       -2.5619059168        0.1508048449
 C         -0.3123373818       -2.7966010510        0.4245999311
 C          0.1176098865       -3.8694196900        1.1964067484
 C          1.4620970048       -4.0394846440        1.4763113445
 C          2.3973974737       -3.1307287121        1.0158308188
 C          1.9766636708       -2.0554247997        0.2411337264
 C          0.6335133470       -1.9093212400       -0.0680610240
 H          0.3255577405       -1.0700623560       -0.6743652858
 N          2.8899518077       -1.1043034024       -0.2427975072
 S          2.3748614304        0.5079973273       -0.2801214147
 O          1.5872985765        0.8056283052        0.8953210551
 O          1.7594361211        0.7680783565       -1.5566455369
 C          3.9501604766        1.3423070843       -0.1996313424
 C          4.4256996818        1.7728277845        1.0245320434
 C          5.6682144662        2.3845568605        1.0837551978
 C          6.4117454250        2.5504161002       -0.0751283007
 C          5.9211267234        2.1133227911       -1.2966846176
 C          4.6789749820        1.5022948565       -1.3631976815
 H          4.2513097458        1.1540249859       -2.2888650159
 H          6.5004198463        2.2466204106       -2.1959587780
 H          7.3783694894        3.0261847608       -0.0260784015
 H          6.0500698765        2.7282070490        2.0315465636
 H          3.8078857396        1.6288345888        1.8966603423
 H          3.8076870806       -1.1929692610        0.1725044836
 H          3.4429567744       -3.2463407319        1.2577099248
 H          1.7829361170       -4.8753569489        2.0791576591
 H         -0.6120052261       -4.5563150443        1.5994364580
 H         -2.3424850219       -3.0689950421        0.9511550573
 C         -2.2351787101       -3.1536034291       -1.1727698522
 C         -1.2944934663       -3.4675464167       -2.2928298333
 C         -1.9183355233       -4.5809606311       -1.5095285600
 H         -2.6832397987       -5.1789652549       -1.9810637597
 H         -1.2837580542       -5.1270164529       -0.8284333747
 H         -1.6347867182       -3.2761646816       -3.2987992098
 H         -0.2457151317       -3.2591850924       -2.1455754658
 H         -3.2170972879       -2.7922166261       -1.4584165213
