  62
        -98.94438829
 C          2.3449671820        1.1294874629        0.2418301637
 C          2.3747922484       -0.1296041628       -0.4056527081
 C          3.3568384470       -1.0905922208        0.1145024289
 C          4.1267237038       -0.7641048069        1.1678166926
 C          5.1530463208       -1.6462493742        1.8252786687
 C          6.5223971621       -1.6362964933        1.1318760000
 C          6.5803363972       -2.3747041605       -0.2059928523
 H          7.6347825423       -2.4761996767       -0.4702223299
 H          6.1775487971       -3.3804819339       -0.0823902027
 C          5.8506968672       -1.6635766799       -1.3541400539
 H          6.4841845561       -1.6638600837       -2.2439704770
 H          5.6775905014       -0.6192705214       -1.0844917769
 C          4.5173155140       -2.2993608439       -1.7480607126
 H          4.6915836256       -3.3014926922       -2.1462045911
 H          4.0699863356       -1.6952379124       -2.5415302394
 C          3.5030786082       -2.3997435716       -0.6010364252
 H          2.5284703779       -2.6589122408       -1.0229577545
 H          3.7991129299       -3.1837492776        0.0957723722
 H          7.2349770193       -2.1069982207        1.8130488430
 H          6.8339191118       -0.5990499199        0.9893799794
 H          4.7771596763       -2.6684934468        1.8780801702
 H          5.2794097918       -1.2694556414        2.8425165867
 O          4.0400292533        0.4424482337        1.7877973219
 C          3.1637522671        1.4147348878        1.3380607794
 O          3.2041986009        2.4783359548        1.9879934673
 O          1.6331902614       -0.4494840491       -1.3723367585
 C          1.3839401579        2.2276490974       -0.1891243989
 C         -0.0126974287        1.8063035416        0.1984118179
 C         -0.4665271115        2.0577791833        1.4902085888
 C         -1.7150051871        1.6247395090        1.8953692019
 C         -2.5328164434        0.9230098620        1.0261596768
 C         -2.0807122672        0.6504708034       -0.2572913579
 C         -0.8358291051        1.1075243559       -0.6703128301
 H         -0.4909798063        0.8761171972       -1.6654241469
 N         -2.8953860719       -0.0730117795       -1.1447635919
 S         -3.6462550878       -1.4648507174       -0.5838555030
 O         -2.8990171824       -2.0906302762        0.4826948178
 O         -3.8824881974       -2.2691229478       -1.7632483146
 C         -5.2115205031       -0.8741945410        0.0294693493
 C         -5.9831644697       -0.0888397828       -0.8046421332
 C         -7.2084360486        0.3695335037       -0.3480652887
 C         -7.6411787809        0.0343304498        0.9263851911
 C         -6.8567478268       -0.7578606818        1.7504225795
 C         -5.6292818227       -1.2188190507        1.2999010179
 H         -4.9829496536       -1.8318354740        1.9080270097
 H         -7.1943639777       -1.0178283130        2.7408659955
 H         -8.5951461037        0.3926988452        1.2796581609
 H         -7.8208458021        0.9863102792       -0.9859230774
 H         -5.6118223748        0.1471297559       -1.7877950478
 H         -2.4581278451       -0.2421476756       -2.0396083743
 H         -3.5020411410        0.5711786705        1.3397647249
 H         -2.0552892111        1.8311127077        2.8987979238
 H          0.1819891810        2.5840819996        2.1769416033
 H          1.6494981448        3.1090596897        0.4092267597
 C          1.5343065335        2.5735495670       -1.6559505561
 C          0.9253197219        3.8408331058       -2.1736339235
 C          2.4138181452        3.7202363113       -2.0500675980
 H          3.0020003571        3.6312874969       -2.9512405115
 H          2.9078866162        4.2660747060       -1.2594648833
 H          0.4894686611        3.8384705883       -3.1609407926
 H          0.4074279529        4.4687775785       -1.4646449074
 H          1.5347305391        1.7082810731       -2.3065369412
