  62
        -98.93481776
 C          2.0950209912        1.0190504194        0.2896322600
 C          1.9989994411        0.0221339386       -0.7103359729
 C          2.2716187746       -1.3649760944       -0.2845777069
 C          2.5712500454       -1.6262140175        0.9999073257
 C          2.8343885971       -2.9347482545        1.7163074816
 C          3.1806966012       -4.2000482446        0.9347222272
 C          4.5097541177       -4.1496017167        0.1829215683
 H          5.3225306125       -4.1173952944        0.9126040273
 H          4.6104977584       -5.0749671147       -0.3884152852
 C          4.6882537990       -2.9628678497       -0.7608667736
 H          4.7223576120       -2.0365154826       -0.1838689307
 H          5.6579083962       -3.0712073852       -1.2541764585
 C          3.6252268389       -2.8272797557       -1.8501307400
 H          3.9690148270       -2.0618522545       -2.5507489960
 H          3.5365744209       -3.7672133876       -2.3981064765
 C          2.2258103390       -2.4079967458       -1.3634368134
 H          1.6906921690       -1.9563889149       -2.2042281043
 H          1.6403709648       -3.2647588891       -1.0362978484
 H          2.3720361752       -4.4561114046        0.2563433848
 H          3.2468558083       -5.0078042080        1.6688584359
 H          3.6378717514       -2.7234796591        2.4291163712
 H          1.9353281799       -3.1310184440        2.3116450843
 O          2.6353544483       -0.6337021506        1.9355150458
 C          2.3943572386        0.6869747888        1.6119845248
 O          2.4915743821        1.4730428330        2.5776835623
 H         -0.3556328337        1.0201902917       -0.7268989299
 C         -0.6324510519        1.9192266439       -0.1979114091
 C          0.3415779858        2.7928285967        0.2607279155
 C         -0.0578894789        3.9487525410        0.9224838413
 C         -1.3990498472        4.2134380247        1.1319124216
 C         -2.3657611398        3.3195612035        0.7083526762
 C         -1.9766052805        2.1637791987        0.0412050366
 N         -2.9259452055        1.2300474410       -0.4044546132
 S         -2.5267954742       -0.4091937920       -0.2734970357
 O         -1.7854876640       -0.6430124801        0.9461635462
 O         -1.9090835243       -0.8405659318       -1.5010707135
 C         -4.1592016025       -1.1204642871       -0.1513993018
 C         -4.8734849008       -1.3500421355       -1.3123356768
 C         -6.1574110876       -1.8632881883       -1.2186084370
 C         -6.7033358972       -2.1358020158        0.0270645731
 C         -5.9739285158       -1.9020606687        1.1831833412
 C         -4.6897007214       -1.3873924725        1.0965321546
 H         -4.0816823806       -1.1962654168        1.9664294714
 H         -6.3991179101       -2.1178261815        2.1500750248
 H         -7.7025860343       -2.5354018695        0.0974517446
 H         -6.7260903312       -2.0488433097       -2.1154128742
 H         -4.4027551848       -1.1306562280       -2.2564795085
 H         -3.8557439996        1.4156344665       -0.0526213143
 H         -3.4118303996        3.5110325295        0.8932909525
 H         -1.6943802186        5.1137522213        1.6488133984
 H          0.6927242290        4.6317324775        1.2911309275
 C          1.8087848671        2.4924217520        0.0537109160
 H          2.3670561490        3.0338134721        0.8313835896
 C          2.2589903606        3.0056435800       -1.3003826016
 C          2.6320028889        4.4483618780       -1.4534397106
 C          3.6924540825        3.3904863984       -1.5019610122
 H          4.1568219070        3.1599582224       -2.4486991633
 H          4.3569196457        3.2946993270       -0.6552381177
 H          2.3653884935        4.9514945830       -2.3699934341
 H          2.5872810986        5.0764471086       -0.5769391254
 H          1.7528201302        2.5237028142       -2.1264931002
 O          1.6988213064        0.2478487416       -1.9130570866
