  62
        -98.94494156
 C         -1.9545387625       -0.8455613823        0.0533141351
 C         -2.2768997440        0.1040828035        1.0498651895
 C         -2.3799190649        1.4950878210        0.5984750854
 C         -2.1276605521        1.7984639370       -0.6879748777
 C         -2.1456646910        3.1776849253       -1.2903322310
 C         -3.5409077877        3.6633658029       -1.7071771157
 C         -4.4724508906        4.0343137633       -0.5525724568
 H         -3.9638817205        4.7340384106        0.1111942568
 H         -5.3270769944        4.5571210729       -0.9862737241
 C         -4.9858052899        2.8351181325        0.2564837892
 H         -6.0612778759        2.9371797834        0.4171337772
 H         -4.8319604064        1.9173185918       -0.3155721687
 C         -4.3361945781        2.6733546837        1.6308036499
 H         -4.5894941017        3.5293523768        2.2600157654
 H         -4.7461228886        1.7757863218        2.1006225083
 C         -2.8086464324        2.5309294424        1.5936616230
 H         -2.3442461863        3.4907546187        1.3670353537
 H         -2.4669675035        2.2033376990        2.5788808896
 H         -4.0093020987        2.8900768058       -2.3201819548
 H         -3.4031590049        4.5474478601       -2.3338752428
 H         -1.7038911469        3.8861610633       -0.5886214538
 H         -1.5125757685        3.1323588576       -2.1793140815
 O         -1.8014886444        0.8580194568       -1.6141244193
 C         -1.7057206097       -0.4809916798       -1.2701150225
 O         -1.4103448019       -1.2356428373       -2.2173520617
 H          0.4575799550       -0.9326105107        0.8687616129
 C          0.6643082942       -1.8871582468        0.4053715402
 C         -0.3835651270       -2.7521438909        0.1156375723
 C         -0.0888302837       -3.9797351173       -0.4630477458
 C          1.2191626006       -4.3095065487       -0.7746795513
 C          2.2523556241       -3.4245650866       -0.5297845210
 C          1.9695916294       -2.2016778621        0.0694960069
 N          2.9951452101       -1.2828980239        0.3585114975
 S          2.6390246892        0.3646761496        0.2397388984
 O          2.0121547183        0.7930604824        1.4662996275
 O          1.9203055636        0.6436016149       -0.9832622268
 C          4.2909907626        1.0327316953        0.1551506427
 C          4.8229746486        1.3799788298       -1.0720920623
 C          6.1200226677        1.8662531853       -1.1272931236
 C          6.8598737240        1.9926329489        0.0387691183
 C          6.3120761224        1.6404814010        1.2635600521
 C          5.0155470272        1.1551757452        1.3259538184
 H          4.5430604025        0.8774192319        2.2536183844
 H          6.8891266357        1.7426457198        2.1683376484
 H          7.8688621906        2.3707467539       -0.0071831598
 H          6.5466316373        2.1438021957       -2.0776632214
 H          4.2062540435        1.2705473844       -1.9499898461
 H          3.8598962193       -1.5048028167       -0.1168403113
 H          3.2678048924       -3.6734589513       -0.7980340871
 H          1.4339644546       -5.2631936753       -1.2325165670
 H         -0.8844468866       -4.6723623858       -0.6838010183
 C         -1.7855159660       -2.3014250958        0.4464585973
 H         -1.9082015721       -2.3260721245        1.5402923377
 C         -2.8625873946       -3.1578024688       -0.1861819616
 C         -3.3538357433       -4.3928870157        0.5065623472
 C         -4.2265016198       -3.1772213625        0.4341905312
 H         -5.0883068155       -3.1952407030       -0.2158492239
 H         -4.3683962926       -2.5923178805        1.3313692394
 H         -3.6209557377       -5.2490229719       -0.0943258787
 H         -2.9106703088       -4.6406866262        1.4591792322
 H         -2.8038729468       -3.1618323470       -1.2689793157
 O         -2.4647854470       -0.1973208369        2.2610029062
