  62
        -98.93999231
 C          1.1164939795        1.3155241196       -0.6995209198
 C          2.4193257396        1.4102251999       -0.1525235599
 C          3.3200250697        0.2547049000       -0.3219779298
 C          2.8563127199       -0.8324244002       -0.9654554996
 C          3.5568718401       -2.1407159601       -1.2244105294
 C          3.6417954403       -3.0264945799        0.0272093407
 C          4.0926609602       -2.3033886697        1.2930742906
 H          3.3845527601       -1.5028114498        1.5164606105
 H          4.0380823704       -3.0179151596        2.1190078807
 C          5.5115274501       -1.7398065795        1.2526719204
 H          6.2118748503       -2.5489066194        1.0342062905
 H          5.7375486901       -1.3669054393        2.2548956003
 C          5.7532117699       -0.5998363796        0.2596906602
 H          5.8859775599       -0.9762276097       -0.7511194597
 H          6.6960967498       -0.1207099594        0.5386928901
 C          4.6866063297        0.4900945303        0.2753028901
 H          4.5170172997        0.8141219404        1.3086187401
 H          5.0814150196        1.3736888103       -0.2405498600
 H          4.3192113904       -3.8563962398       -0.1829108592
 H          2.6481754604       -3.4398185001        0.2200601008
 H          4.5456394900       -1.9629216400       -1.6370883995
 H          2.9689491501       -2.6651146803       -1.9811319993
 O          1.5932588399       -0.8852830905       -1.4715892395
 C          0.6938417897        0.1596193494       -1.3559305896
 O         -0.4088492603       -0.0755956408       -1.8878595595
 O          2.8291701894        2.4360029000        0.4582986200
 C          0.2022034594        2.5109399294       -0.4890456399
 C         -0.6540092205        2.2985623295        0.7369057402
 C         -0.6388131406        3.2043117196        1.7909715700
 C         -1.3994955905        2.9762583097        2.9242634401
 C         -2.1662694804        1.8306658596        3.0379446603
 C         -2.1865633103        0.9189438494        1.9884496204
 C         -1.4573022004        1.1717129394        0.8371078703
 H         -1.4844205303        0.4611389092        0.0272844604
 N         -2.9417108801       -0.2605085907        2.0626830106
 S         -2.3241147999       -1.6666306707        1.3882821508
 O         -3.0110743397       -2.7299519307        2.0973603310
 O         -0.8811859899       -1.7058226405        1.4631179807
 C         -2.8957859000       -1.6698687710       -0.2954850392
 C         -4.0773571801       -1.0298126313       -0.6110238492
 C         -4.5416180001       -1.0907345815       -1.9147086492
 C         -3.8254227401       -1.7924771115       -2.8720799091
 C         -2.6443752699       -2.4340127413       -2.5366209591
 C         -2.1722310799       -2.3735405910       -1.2355859491
 H         -1.2471199198       -2.8421946508       -0.9389650791
 H         -2.0813616699       -2.9714202713       -3.2828095190
 H         -4.1864767801       -1.8360397017       -3.8877649691
 H         -5.4577432902       -0.5879387517       -2.1806660192
 H         -4.6048213201       -0.4875868812        0.1561639507
 H         -3.3846868500       -0.4343279007        2.9533196307
 H         -2.7387572503        1.6371309096        3.9323364503
 H         -1.3796838206        3.6870759998        3.7364154400
 H         -0.0099481208        4.0800252497        1.7268438599
 H          0.8730651692        3.3569309996       -0.2853718301
 C         -0.6550970608        2.8540178791       -1.6909270699
 C         -1.1830950210        4.2491457590       -1.8317472501
 C         -0.1046847909        3.7592784491       -2.7500387701
 H         -0.3527160010        3.5544710889       -3.7804464500
 H          0.8967358290        4.1400388793       -2.6102831102
 H         -2.1760944710        4.3843643288       -2.2313957601
 H         -0.9125766911        4.9665350192       -1.0719223102
 H         -1.2883528206        2.0379805090       -2.0129495298
