  62
        -98.94632024
 C         -1.3716247198       -1.1103751203       -0.1047639597
 C         -2.4565062296       -1.0564895500        0.8070156705
 C         -3.2148045492        0.1983952003        0.8317432007
 C         -2.8350935189        1.2209319102        0.0441603108
 C         -3.4940434383        2.5718165805       -0.0295797389
 C         -4.7179488984        2.6207802711       -0.9547799287
 C         -5.9683868086        1.9201269215       -0.4222981087
 H         -6.1855172284        2.2799128115        0.5839479614
 H         -6.8008483886        2.2211555519       -1.0615238485
 C         -5.8813793192        0.3875529215       -0.4159414589
 H         -5.0661247294        0.0657769513       -1.0680285290
 H         -6.8029836195       -0.0314277381       -0.8263501288
 C         -5.6800654693       -0.2298128488        0.9679358910
 H         -6.5551076592       -0.0285669185        1.5900188311
 H         -5.5930859097       -1.3130330188        0.8506578908
 C         -4.4308050190        0.2696452006        1.7053169209
 H         -4.5863747086        1.2881223306        2.0603054911
 H         -4.2595779392       -0.3796399996        2.5674235108
 H         -4.4433493787        2.1901719211       -1.9204264388
 H         -4.9606889981        3.6734432212       -1.1176068286
 H         -3.7798457581        2.8968100205        0.9711646812
 H         -2.7459561581        3.2632636603       -0.4220748589
 O         -1.7654043790        1.1436803299       -0.7886049593
 C         -1.0164741495       -0.0187226603       -0.8985964396
 O         -0.0886566395        0.0586946194       -1.7256401297
 H          1.7470478599       -1.5667199513       -1.3899941601
 C          1.8561831900       -1.6556554715       -0.3211184501
 C          0.7913096499       -2.1004533312        0.4476043699
 C          0.9536014900       -2.1795857315        1.8276987699
 C          2.1509835002       -1.8239756520        2.4206919998
 C          3.2052193503       -1.3607684723        1.6520784397
 C          3.0457233302       -1.2645034921        0.2765623698
 N          4.0950571503       -0.7406093824       -0.5111281203
 S          4.5292258310        0.8416482574       -0.1652447901
 O          5.2850348310        1.2935942773       -1.3115793901
 O          5.2225341811        0.8658601970        1.0986836698
 C          2.9981335113        1.7467551580       -0.0341306098
 C          2.4512665514        2.2928634684       -1.1771471597
 C          1.2434586317        2.9640532788       -1.0887141294
 C          0.6001778619        3.0640709789        0.1341567807
 C          1.1556552218        2.4997932085        1.2714560405
 C          2.3685776315        1.8359210981        1.1910064503
 H          2.8363312815        1.3945674278        2.0556740902
 H          0.6452189719        2.5711473286        2.2190046206
 H         -0.3438741179        3.5815438192        0.2018935809
 H          0.8010670117        3.3930416691       -1.9732379593
 H          2.9817238413        2.1933413383       -2.1106207897
 H          3.9052329302       -0.8141079822       -1.5014756103
 H          4.1375638105       -1.0520635927        2.0967508297
 H          2.2639287304       -1.8992605222        3.4916416598
 H          0.1209615600       -2.5100600412        2.4326124300
 C         -0.5564392803       -2.3929060406       -0.1610237199
 H         -1.0825494805       -3.1011038505        0.4926317500
 C         -0.4857579807       -2.9772799105       -1.5560148300
 C         -0.0032777113       -4.3850641906       -1.7335402403
 C         -1.4490461011       -4.0552588000       -1.9488698001
 H         -1.8348891413       -4.0584410297       -2.9573942700
 H         -2.1638374912       -4.3825757599       -1.2081368200
 H          0.2647531286       -4.9346362608       -0.8438539404
 H          0.6053075886       -4.6185299007       -2.5937823904
 H         -0.2231210105       -2.2525479504       -2.3165532100
 O         -2.7751544899       -2.0126002300        1.5625198804
