  62
        -98.94705947
 C          1.1107401602        1.7314343046        0.4303043869
 C          1.8692363028        1.2349771796       -0.6606524032
 C          2.8597596917        0.1940932952       -0.3341852598
 C          2.9876704881       -0.2313859086        0.9344135371
 C          3.9257620907       -1.3078648561        1.3959918222
 C          3.2589794779       -2.6895708646        1.3716275574
 C          2.5692213569       -3.0266485445        0.0494429244
 H          2.1909543243       -4.0486223717        0.1297343625
 H          1.6988298572       -2.3816976965       -0.0913177465
 C          3.4695275773       -2.9120052465       -1.1881782660
 H          4.5197186806       -2.9303356193       -0.8920269322
 H          3.2949602664       -3.7806458588       -1.8266008535
 C          3.1981948711       -1.6727471813       -2.0437637268
 H          2.1236853658       -1.5943056954       -2.2304841714
 H          3.6906001808       -1.8103022535       -3.0107945919
 C          3.6928134791       -0.3407024799       -1.4643414733
 H          4.7380422720       -0.4369072785       -1.1601581798
 H          3.6339309848        0.4082330902       -2.2598890601
 H          4.0221344493       -3.4411441469        1.5832658347
 H          2.5114024575       -2.7303952770        2.1671763994
 H          4.8082403948       -1.3084576780        0.7589941109
 H          4.2282596375       -1.0802096567        2.4198592860
 O          2.2414038008        0.2630231824        1.9548622462
 C          1.2895336961        1.2435269678        1.7274874277
 O          0.6748146485        1.5997367547        2.7531405883
 O          1.7492952340        1.6286438550       -1.8505153378
 C          0.0320488672        2.7911013518        0.2886184202
 C         -1.3047475735        2.1987132036       -0.0996562785
 C         -2.4868531684        2.7886119199        0.3371433530
 C         -3.7131480917        2.2502935165       -0.0055939506
 C         -3.7871155903        1.0930672367       -0.7610912868
 C         -2.6134741108        0.4936424995       -1.1991024161
 C         -1.3859595783        1.0624745946       -0.8886242486
 H         -0.4912375840        0.5954431785       -1.2672743467
 N         -2.6386172466       -0.7061288377       -1.9347149445
 S         -1.6749921010       -1.9618280826       -1.3804498877
 O         -0.2922437222       -1.7071345757       -1.6825932077
 O         -2.2496962996       -3.1494307835       -1.9748174486
 C         -1.9505890356       -1.9618329607        0.3804927599
 C         -1.0748200621       -1.2881609272        1.2060891378
 C         -1.3595105983       -1.1935253143        2.5589175819
 C         -2.5101187019       -1.7809927669        3.0614445121
 C         -3.3750364550       -2.4682958399        2.2223542547
 C         -3.1003955779       -2.5530139727        0.8673674116
 H         -3.7457877158       -3.0773153156        0.1811986167
 H         -4.2652574894       -2.9286129832        2.6197192800
 H         -2.7307496693       -1.7009162732        4.1141555392
 H         -0.6875962502       -0.6408295597        3.1979035073
 H         -0.1870159830       -0.8404276529        0.7873176603
 H         -3.5691760545       -1.0452766546       -2.1350451772
 H         -4.7421562674        0.6556850294       -1.0089401942
 H         -4.6213455782        2.7222976296        0.3360144306
 H         -2.4390779106        3.6707254079        0.9570005468
 H         -0.0855816949        3.2308414811        1.2894802313
 C          0.4048370876        3.9021853745       -0.6758571433
 C         -0.0871946848        5.2961042253       -0.4347917372
 C          1.3609123814        4.9671136514       -0.2330507856
 H          2.0853089296        5.3348736579       -0.9438522092
 H          1.7346518756        4.9099598421        0.7793111599
 H         -0.3641513571        5.8961521271       -1.2878282607
 H         -0.6859205891        5.4777906526        0.4445078352
 H          0.4821545852        3.5643225714       -1.7012915379
