  62
        -98.94131039
 C         -2.3850985909       -1.0716636716        0.5115889054
 C         -2.6254924592       -0.2603188977       -0.6240454021
 C         -3.0143900400        1.1316773306       -0.3492001940
 C         -3.1271829874        1.5544891112        0.9216697850
 C         -3.4882837957        2.9501497820        1.3385408213
 C         -2.2417916250        3.8181876562        1.5548488689
 C         -1.2356089049        3.7665911460        0.4045308111
 H         -0.4325104391        4.4674863050        0.6451827702
 H         -0.7796823596        2.7744030428        0.3563748062
 C         -1.8182874411        4.1190757507       -0.9709941657
 H         -2.7530340982        4.6693119193       -0.8518982479
 H         -1.1147002414        4.7766958838       -1.4861551116
 C         -2.0464590349        2.9148618914       -1.8869575456
 H         -1.1431273239        2.2972341970       -1.8947945807
 H         -2.2001097644        3.2844452116       -2.9049599225
 C         -3.2466062258        2.0256019386       -1.5341873413
 H         -4.1332097653        2.6458940041       -1.3860402885
 H         -3.4304258967        1.3597502540       -2.3827258926
 H         -2.5657868843        4.8496756666        1.7080186315
 H         -1.7370402255        3.4809734082        2.4629496301
 H         -4.1251306293        3.3957123220        0.5767475351
 H         -4.0444135964        2.8922675731        2.2760996988
 O         -2.8976323179        0.7466359913        1.9877736615
 C         -2.4920517032       -0.5633446065        1.8094917040
 O         -2.2759634092       -1.1799623859        2.8723054914
 H         -0.4198718395       -1.2853002090       -1.4428305143
 C          0.1975354004       -1.7671624018       -0.6989379946
 C         -0.4036808304       -2.4945841033        0.3197886101
 C          0.4099308393       -3.1018950838        1.2680765909
 C          1.7872420974       -2.9693460002        1.2048124530
 C          2.3781029769       -2.2091622515        0.2100370474
 C          1.5703951370       -1.6059918369       -0.7439907242
 N          2.1569547324       -0.7400423456       -1.7103974528
 S          2.2194291125        0.8350271117       -1.0966162343
 O          1.0422265549        1.1487738499       -0.3173822572
 O          2.4845217536        1.6941911239       -2.2299836081
 C          3.6479141914        0.7592104381       -0.0411146935
 C          4.8987104482        0.7334382718       -0.6266495512
 C          6.0153911732        0.6295981101        0.1871046458
 C          5.8617841027        0.5496908270        1.5634825343
 C          4.5987494954        0.5756697049        2.1352003299
 C          3.4775633500        0.6806223071        1.3266716710
 H          2.4755054516        0.7005560304        1.7261570802
 H          4.4801000793        0.5114580995        3.2049317516
 H          6.7316000619        0.4661751545        2.1957699504
 H          6.9994852060        0.6090521662       -0.2526170873
 H          4.9674909781        0.8013825375       -1.6996162127
 H          1.6170534572       -0.7107580888       -2.5664253668
 H          3.4470860359       -2.0771648128        0.1674198612
 H          2.4053376657       -3.4457321392        1.9500813407
 H         -0.0466804114       -3.6576241595        2.0740529961
 C         -1.9065592219       -2.5154996609        0.4236506395
 H         -2.1711298347       -2.9685097609        1.3915419159
 C         -2.5973104153       -3.3187556890       -0.6691348780
 C         -1.8712407380       -3.9361580933       -1.8240139532
 C         -2.4029194234       -4.8054702090       -0.7272637174
 H         -3.2581526019       -5.4326563030       -0.9274769789
 H         -1.6877243253       -5.2365395800       -0.0428353719
 H         -0.8031040797       -3.7999789825       -1.8915995523
 H         -2.3697738238       -3.9402461578       -2.7815040093
 H         -3.5968021341       -2.9518330026       -0.8755371111
 O         -2.5322490434       -0.6579563812       -1.8163321139
