  62
        -98.94915055
 C          2.0776333298        0.4443895581        0.5592825720
 C          1.4050650543       -0.5443451623        1.3165006313
 C          1.6836436623       -1.9401145078        0.9602604030
 C          2.5347364938       -2.2017447547       -0.0476874548
 C          2.9173516052       -3.5756456095       -0.5160926950
 C          2.0181867368       -4.0606032450       -1.6602811854
 C          0.5224206740       -3.9061983474       -1.3843593660
 H          0.2629991919       -2.8448311969       -1.3560676967
 H         -0.0105794486       -4.3359711127       -2.2361347943
 C          0.0390068994       -4.5765413153       -0.0907442575
 H         -0.8956604692       -5.1007200592       -0.3015771205
 H          0.7642954593       -5.3225189746        0.2378649367
 C         -0.2477300857       -3.5986349405        1.0503866627
 H         -0.8389832296       -4.1196119155        1.8086322261
 H         -0.8548031303       -2.7763003349        0.6622886673
 C          0.9853609211       -3.0108182231        1.7502515348
 H          0.6506097509       -2.5321734949        2.6753927926
 H          1.6779876022       -3.8139601409        2.0116076812
 H          2.2468042851       -5.1106920171       -1.8547062539
 H          2.2594038673       -3.4878201376       -2.5588328826
 H          2.8574606521       -4.2661985428        0.3231814886
 H          3.9492314136       -3.5384423945       -0.8707263655
 O          3.1386982915       -1.2283306801       -0.7749683544
 C          2.8961665868        0.1142508301       -0.5204130202
 O          3.4746681917        0.8909466366       -1.3046995732
 O          0.6122517315       -0.2710235832        2.2590848695
 C          1.7934823615        1.9094420328        0.8582244931
 C          0.9481058582        2.4398320500       -0.2735592368
 C          1.3475876372        3.4337352894       -1.1552291347
 C          0.5386281071        3.7746315539       -2.2268197579
 C         -0.6591388211        3.1219492473       -2.4519657096
 C         -1.0735578770        2.1325062862       -1.5646986365
 C         -0.2860108690        1.8306936685       -0.4683411666
 H         -0.6058174830        1.0675297124        0.2221318166
 N         -2.2800873969        1.4481184064       -1.7569618961
 S         -2.4963768626       -0.1365222958       -1.2504809047
 O         -1.2484475085       -0.8527813326       -1.1471541232
 O         -3.4634981828       -0.6740089681       -2.1862191882
 C         -3.2960950406        0.0477149421        0.3307939621
 C         -2.6388106110       -0.2229849762        1.5130251669
 C         -3.3164409725       -0.0458043490        2.7105245867
 C         -4.6294986939        0.3959098242        2.7077048316
 C         -5.2780046115        0.6615174721        1.5104188056
 C         -4.6074136677        0.4860369269        0.3121701749
 H         -5.0761496482        0.6667897016       -0.6408388725
 H         -6.3003206151        1.0038235485        1.5089085382
 H         -5.1491426763        0.5324384250        3.6430421245
 H         -2.8030521034       -0.2521392865        3.6361233607
 H         -1.6119213777       -0.5561986844        1.5045669725
 H         -2.7400097397        1.6287821963       -2.6364714395
 H         -1.2684768414        3.3681175603       -3.3083978843
 H          0.8586342806        4.5457634152       -2.9114350204
 H          2.2965003790        3.9254388184       -1.0187092219
 H          1.1808300234        1.9073472487        1.7711813610
 C          3.0582654609        2.6960308067        1.1170122401
 C          2.9833109233        3.9915842500        1.8669150429
 C          3.5890516501        2.7843529509        2.5154536307
 H          4.6583614219        2.7573025472        2.6620201587
 H          3.0297754895        2.2857086464        3.2935056603
 H          3.6377100267        4.7972056194        1.5708719936
 H          2.0109480095        4.3150470108        2.2060318827
 H          3.7815158345        2.6095240193        0.3150755663
