  62
        -98.94021100
 C         -1.4422254212       -1.5998267666       -0.3729450136
 C         -0.7330914374       -2.0083192282        0.7827899811
 C          0.6105114198       -2.5906477458        0.5617416662
 C          1.0772643289       -2.7184831733       -0.6913599519
 C          2.4177602043       -3.2254404521       -1.1499353711
 C          3.4348664528       -2.0773783167       -1.2682238038
 C          4.2262902056       -1.7811300392        0.0039386390
 H          4.9112269681       -2.6084347331        0.2029733930
 H          4.8302965372       -0.8912420333       -0.1880566290
 C          3.3844110367       -1.5358930463        1.2576598061
 H          2.5528006425       -0.8650068949        1.0322339757
 H          4.0105347039       -1.0163113392        1.9865604242
 C          2.8511033482       -2.8287127154        1.8924859112
 H          3.3457628650       -3.6887410312        1.4416748292
 H          3.1097554742       -2.8430854049        2.9538646091
 C          1.3312592119       -2.9975859738        1.8185138983
 H          1.0757636531       -4.0409532550        2.0386470556
 H          0.8711848905       -2.3941592498        2.6084628085
 H          2.8990035515       -1.1772302747       -1.5781217521
 H          4.1480615688       -2.3240065695       -2.0573488757
 H          2.7829135303       -4.0096958755       -0.4940834105
 H          2.2564561032       -3.6498236432       -2.1432844887
 O          0.3500188391       -2.3341263041       -1.7783746243
 C         -0.8994095886       -1.7611729069       -1.6508039933
 O         -1.4280559506       -1.4436065867       -2.7350111005
 H         -1.1621921708        0.5052615886        1.3159331986
 C         -1.6966267118        1.1431758867        0.6294309585
 C         -2.5969967273        0.5968569576       -0.2738250121
 C         -3.2919230258        1.4505278006       -1.1223914048
 C         -3.0806209334        2.8166709566       -1.0736431130
 C         -2.1489201587        3.3527706936       -0.2030028150
 C         -1.4469636481        2.5079190494        0.6490042457
 N         -0.4682285833        3.0150418130        1.5234438544
 S          1.0488045782        2.3025325483        1.5253387623
 O          0.9896466481        0.9958678910        2.1206122091
 O          1.8981983933        3.2709257564        2.1846682866
 C          1.4893303059        2.1923459686       -0.1989480819
 C          2.1404772941        3.2585808913       -0.7883335610
 C          2.4170952232        3.2089071223       -2.1448049360
 C          2.0219140958        2.1083143684       -2.8907743463
 C          1.3660043912        1.0471759845       -2.2860431458
 C          1.1026934878        1.0848650655       -0.9256635505
 H          0.6028484090        0.2686462550       -0.4270744151
 H          1.0428611180        0.1928152997       -2.8619590300
 H          2.2254290379        2.0724690625       -3.9493026822
 H          2.9326170654        4.0287252612       -2.6184383809
 H          2.4285859167        4.0937234786       -0.1705539497
 H         -0.3748102820        4.0207906073        1.4947471643
 H         -1.9621915512        4.4156617095       -0.1824284632
 H         -3.6295599623        3.4689941408       -1.7351984548
 H         -3.9894588156        1.0351074558       -1.8340379622
 C         -2.7928392132       -0.9008454815       -0.3473983583
 H         -3.2635029008       -1.1240699899       -1.3153933155
 C         -3.7268684643       -1.3645213857        0.7519883959
 C         -5.2062717282       -1.2368936398        0.5528821038
 C         -4.5615111456       -2.5897899915        0.5392962534
 H         -4.7219364390       -3.2523540835        1.3762907905
 H         -4.4662042281       -3.1002039917       -0.4083052177
 H         -5.8162142526       -0.9665264050        1.4010117118
 H         -5.5555801745       -0.8353542510       -0.3861468506
 H         -3.3354813964       -1.1973564484        1.7466796690
 O         -1.1720209926       -1.9009170232        1.9581339714
