  62
        -98.94290059
 C         -2.0063091096       -1.5543177212        0.0411329502
 C         -1.6238349901       -0.3199689111       -0.5427546199
 C         -2.7022517505        0.6685762986       -0.6961333796
 C         -3.9610228503        0.3572184082       -0.3411480894
 C         -5.1693713906        1.2424418478       -0.4837938091
 C         -5.3675385207        2.2211251977        0.6815897510
 C         -4.3706082711        3.3793096780        0.7312357508
 H         -4.3504737715        3.8805634580       -0.2369451791
 H         -4.7494170912        4.0970131078        1.4616542709
 C         -2.9465411009        2.9691986084        1.1321436005
 H         -2.9693733205        1.9810521884        1.5973932805
 H         -2.5652965809        3.6652346285        1.8825829005
 C         -1.9424558811        2.9521952888       -0.0204547397
 H         -0.9799036109        2.6112203591        0.3691797701
 H         -1.8163604815        3.9668233789       -0.4040560297
 C         -2.3289828611        2.0342055687       -1.1875789196
 H         -3.1469374413        2.4721502185       -1.7592843994
 H         -1.4589523912        1.9252822090       -1.8391884498
 H         -5.3238447403        1.6615591077        1.6190184910
 H         -6.3735173609        2.6374651873        0.5906491812
 H         -6.0365978504        0.5797308375       -0.5272538389
 H         -5.1090907510        1.7972965478       -1.4204544791
 O         -4.2918146598       -0.8504576020        0.1902229207
 C         -3.3218263295       -1.8081882917        0.4383757204
 O         -3.7510298490       -2.8330651518        1.0059055605
 O         -0.4592997403       -0.0430694107       -0.9254063301
 C         -0.9923498092       -2.6481387809        0.3344450899
 C          0.2531229507       -2.0281435905        0.9167112997
 C          0.1746091608       -1.4124696606        2.1626888697
 C          1.2764676107       -0.7864689502        2.7133090395
 C          2.4811502105       -0.7592358298        2.0328021993
 C          2.5678391905       -1.3670236897        0.7880108392
 C          1.4618851906       -2.0042755201        0.2411318594
 H          1.5397987405       -2.4507649000       -0.7376516106
 N          3.7833049503       -1.3390841493        0.0813571690
 S          4.6084636198        0.1115697710       -0.0348978212
 O          5.4910903496       -0.0556954687       -1.1685944813
 O          5.2513407000        0.3983022111        1.2240709887
 C          3.3828637293        1.3557925306       -0.3914645409
 C          2.7906211991        1.3444492504       -1.6380263007
 C          1.8377241187        2.3031382501       -1.9358854005
 C          1.4920251786        3.2496422400       -0.9847948004
 C          2.0898080789        3.2428555801        0.2655241495
 C          3.0453162792        2.2868008804        0.5688766192
 H          3.5397139994        2.2519664506        1.5260567591
 H          1.8131304188        3.9780771800        1.0044705596
 H          0.7507847783        3.9968270097       -1.2204157002
 H          1.3652794785        2.3058773500       -2.9049756104
 H          3.0895408592        0.6001205105       -2.3583913108
 H          3.7326367303       -1.7856351093       -0.8228598310
 H          3.3507610505       -0.2740116395        2.4450122791
 H          1.1980674607       -0.3110903303        3.6795022795
 H         -0.7707541191       -1.4198413209        2.6889426399
 H         -1.4596760188       -3.2709246811        1.1147322200
 C         -0.7111468491       -3.5690907908       -0.8435946002
 C         -1.7907512492       -3.9070357411       -1.8265983600
 C         -0.6258078396       -3.0676074907       -2.2528765502
 H          0.1074509404       -3.5108100704       -2.9114317203
 H         -0.7835439200       -2.0137544007       -2.4195596501
 H         -1.8556422790       -4.9224700411       -2.1877240800
 H         -2.7508203694       -3.4285728714       -1.6990259597
 H         -0.0404734688       -4.3788339005       -0.5711706303
