  62
        -98.94521985
 C          2.0810196843        0.9342277214        0.0458333185
 C          2.8108608573        0.2619715186        1.0541426994
 C          3.4616509298       -0.9883758969        0.6476690164
 C          3.2889480913       -1.4536060152       -0.6031652774
 C          3.8534142059       -2.7342278771       -1.1561521009
 C          5.2950605165       -2.6128234627       -1.6688148906
 C          6.3623137661       -2.4799586335       -0.5817488848
 H          6.2405355424       -3.2839858750        0.1447498631
 H          7.3307336861       -2.6215444865       -1.0654353623
 C          6.3644370272       -1.1255306676        0.1406524388
 H          7.3891249645       -0.7552946832        0.2171311651
 H          5.8039214778       -0.3972956339       -0.4499409438
 C          5.7895958992       -1.1610924307        1.5566812006
 H          5.8072696868       -0.1450596671        1.9590193412
 H          6.4198532242       -1.7863442677        2.1927974225
 C          4.3474238666       -1.6785515219        1.6408611719
 H          3.9612963270       -1.4591378284        2.6394927043
 H          4.3243538610       -2.7573510353        1.4870321735
 H          5.3534500637       -1.7567838849       -2.3449105865
 H          5.5092800803       -3.5117458204       -2.2513760502
 H          3.7994727712       -3.5159933443       -0.3976560906
 H          3.2114258632       -3.0187451005       -1.9928600182
 O          2.5380171670       -0.8019179018       -1.5307439681
 C          1.9303964124        0.4114407045       -1.2392366719
 O          1.2985828965        0.9096389650       -2.1892567364
 O          2.9039322235        0.6805682582        2.2403020773
 C          1.3826950903        2.2390187306        0.3875637841
 C         -0.1056112191        2.0643783905        0.2112661677
 C         -0.8978177524        2.9037906001       -0.5593964920
 C         -2.2506888748        2.6485871527       -0.7074015971
 C         -2.8417303196        1.5621494919       -0.0895963087
 C         -2.0598248375        0.7216422054        0.6923883141
 C         -0.7080853826        0.9816010512        0.8416996813
 H         -0.0985349610        0.3194022566        1.4457265985
 N         -2.6564973671       -0.3905766049        1.3259204200
 S         -3.2870169959       -1.5622985442        0.2920508425
 O         -3.2996736694       -2.7842840032        1.0678348778
 O         -2.5680092244       -1.6046462052       -0.9612563494
 C         -4.9630197568       -1.0271793136        0.0221652345
 C         -5.3822194960       -0.6998148264       -1.2523141280
 C         -6.6914942268       -0.2843999841       -1.4399825456
 C         -7.5524173208       -0.2046864066       -0.3559156787
 C         -7.1157887352       -0.5392437334        0.9174926796
 C         -5.8087065789       -0.9562154795        1.1120861712
 H         -5.4292257820       -1.2310720931        2.0819562220
 H         -7.7884545287       -0.4760568426        1.7575510791
 H         -8.5700357811        0.1200908698       -0.5049158735
 H         -7.0322993704       -0.0240133161       -2.4291790694
 H         -4.6737899479       -0.7720246599       -2.0622760962
 H         -2.0393643323       -0.8379637846        1.9901375515
 H         -3.8935391610        1.3585541000       -0.2071413099
 H         -2.8526413326        3.3048419116       -1.3171159285
 H         -0.4542317159        3.7502213581       -1.0569809151
 H          1.5846309813        2.4069149448        1.4560172204
 C          1.9649232666        3.3883100492       -0.4063604704
 C          1.8892154802        4.7858441978        0.1298530502
 C          3.2023250318        4.0649343602        0.0997481504
 H          3.9483979007        4.3767368279       -0.6157043897
 H          3.6150767833        3.7104966752        1.0330857946
 H          1.7354541912        5.5971048643       -0.5653199404
 H          1.4112195056        4.9274409428        1.0872002218
 H          1.8771814126        3.2415317487       -1.4769211182
