  62
        -98.94091524
 C          2.3865878503        1.2631273141        0.1405593697
 C          2.2645462544       -0.1453346783        0.0289110969
 C          3.3762318768       -0.9275186046        0.5923115002
 C          4.4006703099       -0.3070043339        1.2023809222
 C          5.5948656393       -0.9701711148        1.8330108230
 C          6.7129551087       -1.3153727601        0.8397227368
 C          6.4146900182       -2.4884455958       -0.0949510681
 H          7.3549234978       -2.7586018234       -0.5797131046
 H          6.0931413422       -3.3482642972        0.4936361766
 C          5.3709217522       -2.1859721563       -1.1791901754
 H          5.2507902049       -1.1046063513       -1.2778636909
 H          5.7280162509       -2.5569355576       -2.1425426085
 C          3.9997347860       -2.8157019944       -0.9323780633
 H          3.3299750852       -2.5099842601       -1.7406397951
 H          4.0849519611       -3.9042712270       -0.9627416495
 C          3.3502470364       -2.4137948745        0.3984823844
 H          2.3034317580       -2.7286111803        0.3801016496
 H          3.8502844531       -2.9147241575        1.2272219172
 H          6.9407839948       -0.4262815714        0.2471742566
 H          7.6023978735       -1.5619604949        1.4239577422
 H          5.9910941955       -0.2639683176        2.5658284405
 H          5.2789260357       -1.8731437369        2.3562115231
 O          4.4557654553        1.0446079713        1.3352009866
 C          3.4656302194        1.8548807630        0.8058506873
 O          3.6531723478        3.0730266831        0.9965281358
 O          1.2976766439       -0.7404272089       -0.5137009736
 C          1.3348231227        2.2216048839       -0.3957092247
 C         -0.0334003484        1.7874131863        0.0654123134
 C         -0.4302122251        2.0617457319        1.3705328069
 C         -1.6613288084        1.6397224275        1.8360213885
 C         -2.5165354284        0.9266388418        1.0139876613
 C         -2.1196042022        0.6288998962       -0.2823515730
 C         -0.8930426042        1.0770222762       -0.7559131472
 H         -0.5877194152        0.8290424498       -1.7605234696
 N         -2.9729250287       -0.1016944710       -1.1243587200
 S         -3.8182102037       -1.4123379804       -0.5089732821
 O         -3.1230627585       -2.0548383453        0.5817303942
 O         -4.1141992292       -2.2383534988       -1.6597655338
 C         -5.3357714713       -0.6853293312        0.0789174116
 C         -6.0517364795        0.1197330531       -0.7853477155
 C         -7.2380901520        0.6851566883       -0.3462118741
 C         -7.6887178078        0.4349547203        0.9413967029
 C         -6.9613176024       -0.3792380339        1.7957166449
 C         -5.7731252891       -0.9470187293        1.3624904261
 H         -5.1717380834       -1.5819253164        1.9939650247
 H         -7.3132075725       -0.5739119132        2.7961324226
 H         -8.6121652040        0.8766385177        1.2811978775
 H         -7.8066889187        1.3185315039       -1.0079484986
 H         -5.6694860414        0.2870138356       -1.7783292336
 H         -2.5588437731       -0.3301000372       -2.0166163181
 H         -3.4709113719        0.5807600597        1.3757253409
 H         -1.9580867929        1.8630887285        2.8496364593
 H          0.2456147138        2.6023140772        2.0193405828
 H          1.5625229702        3.1864658826        0.0844654115
 C          1.4067851063        2.4587354790       -1.8974371596
 C          2.7350894399        2.6166023634       -2.5739712005
 C          1.8791676671        1.4242287400       -2.8721829053
 H          1.3925032430        1.3725771073       -3.8356547264
 H          2.1804098400        0.4630622459       -2.4868053099
 H          2.8428682502        3.3786538285       -3.3308666059
 H          3.6184243023        2.4735576689       -1.9682525389
 H          0.6118803292        3.1162652423       -2.2364825831
