  62
        -98.94516946
 C         -1.0471644703       -1.3026572394        0.4658837990
 C         -1.5615556300       -0.7185327886       -0.7193863307
 C         -2.3676310296        0.4984596215       -0.5316337501
 C         -2.5702922896        0.9958794809        0.7005743502
 C         -3.3343091692        2.2465342810        1.0412540108
 C         -4.8534409393        2.0467778214        1.1308992406
 C         -5.5649639093        1.8429548423       -0.2072612696
 H         -6.6361405092        1.9370657625       -0.0180467296
 H         -5.2840550390        2.6432391926       -0.8927652491
 C         -5.2988872396        0.4822075626       -0.8663021803
 H         -6.2414134297        0.0575399631       -1.2189974106
 H         -4.8936030799       -0.2095837779       -0.1243608207
 C         -4.3496176095        0.5325348830       -2.0639840602
 H         -4.2001158398       -0.4870219069       -2.4285079708
 H         -4.8038280493        1.1142396735       -2.8693885399
 C         -2.9717502493        1.1287857924       -1.7492824798
 H         -2.3027646593        0.9298997726       -2.5912014798
 H         -3.0481466190        2.2088617923       -1.6203846892
 H         -5.2707586591        2.9371143012        1.6067845210
 H         -5.0555309096        1.1945837811        1.7836678901
 H         -2.9735869992        2.5759765803        2.0180514110
 H         -3.1089409089        3.0230317913        0.3092405812
 O         -2.0638396698        0.4044933802        1.8148446099
 C         -1.3035746902       -0.7507868400        1.7243563693
 O         -0.9157673504       -1.1879157407        2.8259660291
 H          0.9579244201       -0.7229232791       -1.2417158705
 C          1.6896696799       -1.2025134297       -0.6113340707
 C          1.3004161995       -2.1560461700        0.3178532288
 C          2.2784403193       -2.7700000208        1.0926497185
 C          3.6119089094       -2.4378455811        0.9393674188
 C          3.9934618897       -1.4695494907        0.0281198393
 C          3.0239869500       -0.8466268400       -0.7483745504
 N          3.3738475404        0.1596283604       -1.6673547398
 S          2.5174507908        1.5982629906       -1.6138920591
 O          1.2304156408        1.4513024514       -2.2398945393
 O          3.4091712511        2.5668802607       -2.2164012585
 C          2.3387804908        1.9367401397        0.1279172711
 C          1.1289874906        1.7104083898        0.7502917508
 C          1.0314484406        1.9094590791        2.1185204709
 C          2.1412537607        2.3283690283        2.8354498313
 C          3.3487805508        2.5604417383        2.1940158015
 C          3.4525648108        2.3587997290        0.8278184814
 H          4.3699290009        2.5368784190        0.2905378915
 H          4.2070283608        2.8918672878        2.7558512317
 H          2.0595910806        2.4747274178        3.9008718213
 H          0.0945781605        1.7175950591        2.6179070408
 H          0.2861451106        1.3827636903        0.1607362306
 H          4.3660400404        0.3455769701       -1.7131495196
 H          5.0315174798       -1.1962402410       -0.0836750604
 H          4.3602733692       -2.9250722716        1.5450781186
 H          1.9851810990       -3.5053570211        1.8265875781
 C         -0.1546597206       -2.5315101397        0.4843535984
 H         -0.2693231308       -2.9698246702        1.4857467982
 C         -0.5338746409       -3.5838091390       -0.5403330022
 C         -0.2269697213       -5.0235306793       -0.2636582629
 C         -1.6453728312       -4.5401565689       -0.2345367928
 H         -2.3109060412       -4.8269165182       -1.0347400630
 H         -2.1329422312       -4.4472284292        0.7253287472
 H          0.0865890186       -5.6481962689       -1.0858091332
 H          0.2406604385       -5.2679715899        0.6778081170
 H         -0.4451362707       -3.2354963585       -1.5611125120
 O         -1.3702554700       -1.1612594380       -1.8820662109
