  62
        -98.94013961
 C         -2.0291955526       -0.6474531211        0.9670177793
 C         -2.8700374006       -1.1613163738       -0.0513330548
 C         -4.2651386989       -0.6895430273       -0.0261522167
 C         -4.6592008339        0.1787975917        0.9215235016
 C         -6.0289778722        0.7841024826        1.0179626069
 C         -6.1061828594        2.1086185586        0.2457398313
 C         -5.5537404916        2.0274992229       -1.1774332849
 H         -4.4780572531        1.8415031747       -1.1323382939
 H         -5.6896793612        3.0099039056       -1.6350042358
 C         -6.2171346183        0.9577563546       -2.0561666219
 H         -6.4283126895        1.3917334366       -3.0358338720
 H         -7.1723475855        0.6613112569       -1.6211677836
 C         -5.3607854747       -0.2870486821       -2.2954305501
 H         -4.3696259615        0.0128387885       -2.6446519372
 H         -5.8262649457       -0.8709275648       -3.0939680325
 C         -5.1861671681       -1.2188206769       -1.0895770158
 H         -4.7273282703       -2.1440882092       -1.4501560632
 H         -6.1634095027       -1.4612384712       -0.6673660881
 H         -5.5337692710        2.8619602162        0.7921810596
 H         -7.1488199649        2.4304568377        0.2156375597
 H         -6.2479085818        0.9741731504        2.0701173237
 H         -6.7607184119        0.0800995202        0.6264287538
 O         -3.8249807723        0.6478613448        1.8848614841
 C         -2.4988296374        0.2561496560        1.9243257418
 O         -1.8422983591        0.7663463774        2.8554880720
 O         -2.4984491036       -1.9677139591       -0.9408370100
 C         -0.5602544153       -1.0161826294        1.0978119813
 C          0.2899677287       -0.0928422725        0.2643721886
 C          0.0373039236        0.0913169362       -1.0915898624
 C          0.8296434268        0.9382212985       -1.8448166788
 C          1.8918823314        1.6111388165       -1.2661142341
 C          2.1554477934        1.4295871708        0.0844749786
 C          1.3559342033        0.5820940641        0.8404186141
 H          1.5562796242        0.4576372920        1.8961441851
 N          3.2619769045        2.0847227145        0.6638439244
 S          4.7510674868        1.6985866447       -0.0101767202
 O          5.7299001910        2.0181310854        1.0036832243
 O          4.8925018453        2.3802240777       -1.2710969360
 C          4.6541467883       -0.0633379191       -0.2664767533
 C          4.2940486486       -0.5552638793       -1.5048221578
 C          4.1115778429       -1.9207764070       -1.6546128719
 C          4.2911794009       -2.7657943294       -0.5709106930
 C          4.6634746842       -2.2569705400        0.6641031704
 C          4.8401137329       -0.8920981113        0.8223957622
 H          5.1293777155       -0.4577925125        1.7662899980
 H          4.8065561857       -2.9181397176        1.5037625793
 H          4.1364235080       -3.8263961818       -0.6875658322
 H          3.8227829198       -2.3198861705       -2.6135518140
 H          4.1670464286        0.1337688976       -2.3232597489
 H          3.3031324073        1.9844844908        1.6683175807
 H          2.5251249110        2.2689077023       -1.8394592105
 H          0.6198974872        1.0751521401       -2.8948892095
 H         -0.7821612371       -0.4436227067       -1.5467943164
 H         -0.3143646232       -0.8272876097        2.1545969274
 C         -0.2795759083       -2.4884655900        0.8228387496
 C          0.5762611522       -2.9736108390       -0.3053370012
 C          1.0869382813       -3.0423400405        1.1000193127
 H          1.1676768765       -4.0052641190        1.5805668575
 H          1.8567624289       -2.3393669407        1.3821902413
 H          0.2775314735       -3.8864903426       -0.7969938892
 H          1.0145458298       -2.2444168595       -0.9682563308
 H         -1.1216977752       -3.1176417826        1.0899156039
