  62
        -98.94593586
 C         -1.5761486435       -1.5574084369       -0.2783200232
 C         -1.4471457768       -0.1878527158       -0.6143996291
 C         -2.7071071958        0.5596420866       -0.7372904465
 C         -3.8750289129       -0.0787299599       -0.5419241105
 C         -5.2234717137        0.5797413925       -0.5658730932
 C         -5.6268702360        1.0651336008        0.8339385553
 C         -4.5405606320        1.8696169482        1.5485297556
 H         -4.9489252247        2.1788115824        2.5132642134
 H         -3.6897298252        1.2161589551        1.7548762155
 C         -4.0543763375        3.1058872158        0.7792251943
 H         -4.7820391259        3.3729480293        0.0119443554
 H         -3.9922346834        3.9467446041        1.4732151948
 C         -2.6739611493        2.9526348245        0.1374264173
 H         -1.9586558795        2.5947033387        0.8820539691
 H         -2.3418533895        3.9411992879       -0.1895601972
 C         -2.6065954933        2.0195749875       -1.0775621829
 H         -3.3724401749        2.3012279908       -1.8028636526
 H         -1.6236930825        2.1469641884       -1.5397376043
 H         -6.5301427977        1.6711507370        0.7420416419
 H         -5.8650157034        0.1926756206        1.4470077091
 H         -5.2008508778        1.4177016615       -1.2597856935
 H         -5.9577999018       -0.1487062790       -0.9137427222
 O         -3.9577133018       -1.4011394356       -0.2418430372
 C         -2.8142037007       -2.1687949900       -0.0870809820
 O         -3.0291617503       -3.3597124134        0.2184238533
 H          2.2661947925       -1.4104318995       -0.2228008381
 C          1.8078429332       -1.3003712141        0.7447667435
 C          0.5249120689       -1.7657833239        0.9796853278
 C         -0.0186262143       -1.6148823408        2.2538407721
 C          0.7015946314       -1.0058529365        3.2622629476
 C          1.9753764829       -0.5214402701        3.0182092256
 C          2.5277309813       -0.6715682841        1.7524606561
 N          3.8208986274       -0.2049165715        1.4810556931
 S          4.2248862655        0.4012236811       -0.0198680676
 O          4.3758736249       -0.6748335695       -0.9678387764
 O          5.4220796178        1.1783796246        0.2317447692
 C          2.9165566544        1.5019822608       -0.5266723527
 C          2.4224080591        2.4175842329        0.3796879941
 C          1.4576751642        3.3183314754       -0.0379715916
 C          1.0140190125        3.2967115172       -1.3501687795
 C          1.5188594436        2.3706984898       -2.2472581619
 C          2.4775111138        1.4618185856       -1.8325892956
 H          2.8870898566        0.7163765853       -2.4960223892
 H          1.1618235362        2.3452527724       -3.2648102259
 H          0.2642515875        4.0022054681       -1.6735878608
 H          1.0510417200        4.0319202868        0.6610569854
 H          2.7881107078        2.4193185960        1.3939835620
 H          4.2572889974        0.3158752739        2.2270622672
 H          2.5377938736       -0.0359587678        3.8012037361
 H          0.2666544986       -0.8974057909        4.2444887033
 H         -1.0203206832       -1.9804113019        2.4376917757
 C         -0.3259702050       -2.3997888216       -0.0931453879
 H         -0.6647277872       -3.3818722881        0.2664677954
 C          0.3930473525       -2.5825690354       -1.4123380828
 C          1.3241615819       -3.7406967529       -1.6025626538
 C          0.0029335166       -3.7162578208       -2.3098206154
 H         -0.0095239320       -3.5491834434       -3.3764488178
 H         -0.7764914546       -4.3793262933       -1.9629396090
 H          1.4440887149       -4.4250028513       -0.7760800070
 H          2.2246526157       -3.5884442191       -2.1786838615
 H          0.6507861266       -1.6408498026       -1.8836463846
 O         -0.3424266613        0.3824148833       -0.7987123946
