  62
        -98.93480237
 C          2.1443551973        0.9821483892        0.2751033726
 C          2.0017044711       -0.0077688150       -0.7261764516
 C          2.1653348360       -1.4103442901       -0.2940758348
 C          2.4325007886       -1.6883142562        0.9940291357
 C          2.5861244533       -3.0077074327        1.7226533201
 C          2.7845960959       -4.3106043884        0.9522124904
 C          4.1079833203       -4.4129084836        0.1951363779
 H          4.9203960439       -4.4810041515        0.9227617909
 H          4.0983668185       -5.3397243408       -0.3824487759
 C          4.4227896260       -3.2483864008       -0.7403561199
 H          5.3822285921       -3.4559231582       -1.2217569239
 H          4.5452985303       -2.3328977906       -0.1582262684
 C          3.3945079171       -2.9989657951       -1.8423382970
 H          3.2213780958       -3.9208128493       -2.4008975996
 H          3.8211885083       -2.2649302666       -2.5308969198
 C          2.0365415951       -2.4498950524       -1.3698874300
 H          1.5525777500       -1.9547468744       -2.2172465770
 H          1.3711494765       -3.2476900948       -1.0464616908
 H          1.9477481840       -4.4803592387        0.2809358939
 H          2.7648159589       -5.1145055878        1.6932758910
 H          1.6872060201       -3.1047576872        2.3421148664
 H          3.4241921760       -2.8687364626        2.4132695085
 O          2.5700073086       -0.6989540031        1.9253778993
 C          2.4114186581        0.6333289135        1.6000639866
 O          2.5488047988        1.4128208201        2.5662480867
 O          1.7427629177        0.2359960035       -1.9349986275
 C          1.9207747158        2.4676533850        0.0446194268
 C          0.4662680914        2.8131398666        0.2724769867
 C          0.1062321354        3.9634031883        0.9653888851
 C         -1.2250143491        4.2552856723        1.2018661591
 C         -2.2201323472        3.3937671001        0.7767592181
 C         -1.8701232912        2.2443301240        0.0776382028
 C         -0.5366482297        1.9757489944       -0.1915122331
 H         -0.2900467962        1.0828015981       -0.7449106880
 N         -2.8463291099        1.3382333934       -0.3679808130
 S         -2.4668633956       -0.3096564576       -0.2825305478
 O         -1.7152187239       -0.5844106303        0.9221006927
 O         -1.8691785033       -0.7170101259       -1.5280869238
 C         -4.1058674015       -1.0059839690       -0.1629660001
 C         -4.6002932964       -1.3767731810        1.0729448618
 C         -5.8869731445       -1.8863548195        1.1550148987
 C         -6.6544739223       -2.0114260910        0.0068495602
 C         -6.1446200385       -1.6347320922       -1.2270082289
 C         -4.8584828533       -1.1265891398       -1.3163388347
 H         -4.4147733634       -0.8302962049       -2.2525235062
 H         -6.7430258314       -1.7357391981       -2.1179564050
 H         -7.6552117808       -2.4078650749        0.0737397432
 H         -6.2841392823       -2.1830273645        2.1123395922
 H         -3.9635068226       -1.2670216430        1.9362785251
 H         -3.7630667252        1.5284036246        0.0143497764
 H         -3.2577550532        3.6051384119        0.9859159048
 H         -1.4901274874        5.1506920539        1.7431363853
 H          0.8790363520        4.6188154953        1.3382561305
 H          2.5065654780        2.9842247510        0.8188375975
 C          2.3725056049        2.9724627444       -1.3115025707
 C          2.7838062659        4.4053247439       -1.4608173760
 C          3.8138078692        3.3187271225       -1.5266407620
 H          4.2608357817        3.0806591656       -2.4798121738
 H          4.4848337107        3.2001369888       -0.6880695765
 H          2.5213604474        4.9211191807       -2.3715147271
 H          2.7655353425        5.0291177375       -0.5802701485
 H          1.8444851515        2.5097760133       -2.1348407874
