  62
        -98.94298685
 C         -2.6799933620        1.2000803244       -0.1311543266
 C         -2.7017550338        0.2045382125        0.8748091229
 C         -3.9000268598       -0.6466186262        0.9034672186
 C         -4.8882907923       -0.4255589069        0.0174535693
 C         -6.1355311009       -1.2519273145       -0.0997918681
 C         -5.9482564126       -2.3988492097       -1.1029595264
 C         -4.6726497466       -3.2117592789       -0.8811284510
 H         -4.6625107328       -4.0100529961       -1.6264551452
 H         -3.8056128368       -2.5771370714       -1.0787111841
 C         -4.5435595452       -3.8205328685        0.5221089620
 H         -5.5187893119       -3.8361544282        1.0100598589
 H         -4.2131806188       -4.8567778282        0.4247338297
 C         -3.5339897965       -3.1148475209        1.4295320406
 H         -2.5793273155       -3.0122744568        0.9071499547
 H         -3.3622796074       -3.7483397435        2.3038275808
 C         -3.9518573961       -1.7309787630        1.9425414687
 H         -4.9452733293       -1.7886729072        2.3919393086
 H         -3.2393922277       -1.4354145227        2.7182400904
 H         -6.8169006533       -3.0568905929       -1.0409000819
 H         -5.9138046105       -1.9757222576       -2.1096209446
 H         -6.3950747584       -1.6499633394        0.8791570010
 H         -6.9445899206       -0.6066431973       -0.4460937248
 O         -4.8405672748        0.5577841981       -0.9179801649
 C         -3.7335664207        1.3830249108       -1.0261832133
 O         -3.8051532442        2.2256769471       -1.9439544002
 O         -1.7720044380        0.0344248475        1.7057632165
 C         -1.4762563773        2.1161966520       -0.2596361548
 C         -0.2294229780        1.2950538779       -0.4834959364
 C         -0.2225990373        0.3591285497       -1.5149871301
 C          0.8949739931       -0.4136263672       -1.7618908613
 C          2.0334666766       -0.2716676978       -0.9870631383
 C          2.0435702357        0.6671381710        0.0340142780
 C          0.9184115568        1.4471047708        0.2766477508
 H          0.9433717632        2.1705804064        1.0765901278
 N          3.1902880083        0.8133597163        0.8293902635
 S          4.6952644817        0.8953359660        0.0971398762
 O          5.5347005371        1.5968392397        1.0436673713
 O          4.6091499418        1.4635819774       -1.2280553158
 C          5.2241599103       -0.8022036291        0.0020009605
 C          5.2275156064       -1.5510395582        1.1624311912
 C          5.6489529883       -2.8698339650        1.1062181716
 C          6.0605314517       -3.4137031542       -0.1015457724
 C          6.0545613407       -2.6477842228       -1.2571352689
 C          5.6332427858       -1.3280342852       -1.2077547195
 H          5.6069321929       -0.6966906531       -2.0817798245
 H          6.3754050863       -3.0721975479       -2.1949142861
 H          6.3880752664       -4.4405503000       -0.1421940686
 H          5.6546970092       -3.4688090979        2.0027384189
 H          4.9026839324       -1.0920168372        2.0812722444
 H          3.0991261350        1.4985836610        1.5649055601
 H          2.9071656673       -0.8749332567       -1.1716088584
 H          0.8809108245       -1.1374179565       -2.5629088378
 H         -1.1125090645        0.2463599702       -2.1202087880
 H         -1.6486933761        2.7213143240       -1.1618158690
 C         -1.3971963074        3.0413673011        0.9367051922
 C         -0.7310742273        4.3781232348        0.8135985775
 C         -2.2220050049        4.2917143182        0.9385924127
 H         -2.6818652048        4.6053065790        1.8637091902
 H         -2.8236658391        4.4894159878        0.0633188005
 H         -0.1692366210        4.7564251382        1.6547185962
 H         -0.3168410828        4.6441201590       -0.1474107627
 H         -1.3029547884        2.5044495829        1.8737881410
