  62
        -98.94568497
 C         -0.0652230683       -2.1975959591       -0.3516607626
 C         -0.7930587049       -1.1758985489       -1.0111581715
 C         -2.2364559446       -1.1438161109       -0.7358663922
 C         -2.7648427055       -1.9551273355        0.1961718663
 C         -4.2127096366       -2.0248285676        0.5998704154
 C         -4.6321110934       -0.9436256438        1.6049817168
 C         -4.7772340451        0.4646103389        1.0268239787
 H         -5.4048492451        0.4278872682        0.1355566883
 H         -5.3042107079        1.0625289546        1.7732528293
 C         -3.4491632261        1.1587371225        0.6938532605
 H         -2.6261116426        0.6714098812        1.2230780302
 H         -3.4791753931        2.1900845323        1.0553644320
 C         -3.1128054345        1.2131060504       -0.7958112992
 H         -2.1265354586        1.6709747580       -0.8995918280
 H         -3.8389729762        1.8440850204       -1.3139752587
 C         -3.0712852816       -0.1523211191       -1.4901150712
 H         -4.0821182664       -0.5384202860       -1.6225981323
 H         -2.6146727493       -0.0166382435       -2.4737904608
 H         -5.5971003074       -1.2428090021        2.0212992358
 H         -3.9074244736       -0.9258173042        2.4227025372
 H         -4.8451160553       -1.9641589583       -0.2864985149
 H         -4.3578739593       -3.0025311665        1.0645562639
 O         -2.0129502573       -2.8503967161        0.8906702354
 C         -0.6656482291       -3.0062454029        0.6174970559
 O         -0.1099002809       -3.8977038210        1.2933400449
 O         -0.2966875037       -0.3312469940       -1.8027199299
 C          1.4153303284       -2.4669894477       -0.5732420021
 C          2.2609199487       -1.6212950598        0.3480812796
 C          3.2944195312       -2.1768162441        1.0924008393
 C          4.0466922308       -1.3882873149        1.9449391109
 C          3.7692555779       -0.0404619816        2.0850155627
 C          2.7383057155        0.5236801526        1.3419092230
 C          2.0088229660       -0.2626004268        0.4634300314
 H          1.2100159619        0.1788044843       -0.1091175684
 N          2.4306074128        1.8877604864        1.4511638048
 S          0.8414974396        2.4118762068        1.3667571347
 O          0.7974837942        3.5936073361        2.2059500764
 O         -0.0860194740        1.3635004781        1.7242600027
 C          0.6033140072        2.9366210623       -0.3194407846
 C          1.5227894341        2.6534949020       -1.3073141846
 C          1.2766870605        3.1014216571       -2.5963042540
 C          0.1288441099        3.8252587321       -2.8745706436
 C         -0.7802630470        4.1125800922       -1.8685537337
 C         -0.5423017934        3.6638420573       -0.5796733442
 H         -1.2210710413        3.8655138147        0.2343089157
 H         -1.6740816197        4.6762511139       -2.0828545033
 H         -0.0589681452        4.1674816460       -3.8800854332
 H          1.9833815581        2.8780391492       -3.3794303240
 H          2.4100101568        2.0893819304       -1.0718098949
 H          2.9474192089        2.3909675588        2.1569631159
 H          4.3396844953        0.5714098001        2.7672458739
 H          4.8456816848       -1.8301926160        2.5207370907
 H          3.4931920977       -3.2355271865        1.0160404079
 H          1.5730172748       -3.5187181201       -0.2953130836
 C          1.8580719716       -2.2783788512       -2.0115755316
 C          3.0677673026       -3.0100230459       -2.5063466420
 C          1.7036206878       -3.4074562478       -2.9834911334
 H          1.4197798913       -3.1757911227       -3.9988325332
 H          1.2823000658       -4.3311002030       -2.6134314949
 H          3.7268359894       -2.5057721133       -3.1959500609
 H          3.5734536638       -3.6693329834       -1.8173504527
 H          1.6846210846       -1.2767948285       -2.3815134902
