  62
        -98.93813414
 C          1.9801043024        1.3845472139        0.3091788835
 C          2.6342574601        0.7213382789       -0.7558783413
 C          3.7927925312       -0.1116271076       -0.3879092487
 C          4.1607675918       -0.2026016834        0.9015106810
 C          5.3267085793       -0.9563266137        1.4904272963
 C          5.5782919057       -2.3813521436        0.9763461860
 C          4.3202258739       -3.1531814703        0.5516743992
 H          4.3234273961       -4.1311431672        1.0368986497
 H          3.4246688450       -2.6273948077        0.8878425409
 C          4.2405603763       -3.3807173912       -0.9600803353
 H          3.5631418033       -4.2160048276       -1.1540887145
 H          5.2292798400       -3.6716790167       -1.3216331866
 C          3.7381356767       -2.1925013243       -1.7799389807
 H          3.8487762218       -2.4439904072       -2.8374992565
 H          2.6698935329       -2.0413463823       -1.5994868582
 C          4.4496039972       -0.8556489085       -1.5144497134
 H          5.5119965298       -1.0031857633       -1.3359866690
 H          4.3270513246       -0.2297477607       -2.4024599948
 H          6.0821897534       -2.9222914147        1.7790321913
 H          6.2717608518       -2.3487614070        0.1372068378
 H          6.2295893899       -0.3576139715        1.3403784642
 H          5.1335617410       -0.9835346495        2.5654742470
 O          3.4914052239        0.4450638838        1.8974696089
 C          2.3870400421        1.2373636974        1.6331775449
 O          1.8582882170        1.7399258901        2.6464905352
 H         -0.0852909166       -0.1361471111        0.7869120580
 C         -0.6294532088        0.2073271721       -0.0849697514
 C         -0.3139063199        1.4452319648       -0.6325912061
 C         -1.0333380003        1.8812968935       -1.7369849442
 C         -2.0146579811        1.0800299020       -2.2961889487
 C         -2.3068171886       -0.1619324167       -1.7647464868
 C         -1.6084973560       -0.5981036927       -0.6451753818
 N         -1.9101108329       -1.8500054121       -0.0832243677
 S         -3.5221024507       -2.2622392664        0.0960429187
 O         -3.5561684047       -3.1756626156        1.2167876697
 O         -4.0322034395       -2.7782629221       -1.1497922126
 C         -4.3571747259       -0.7387298136        0.5029540021
 C         -3.9567981125       -0.0593955501        1.6365587527
 C         -4.5738076467        1.1400031127        1.9522054399
 C         -5.5765030858        1.6368695963        1.1333077511
 C         -5.9712446085        0.9400929188        0.0020303535
 C         -5.3555536659       -0.2588885291       -0.3199605300
 H         -5.6285955103       -0.8314634644       -1.1913339125
 H         -6.7524928608        1.3279085096       -0.6314630365
 H         -6.0522338298        2.5726282611        1.3807619111
 H         -4.2667476919        1.6827144165        2.8319571736
 H         -3.1769372876       -0.4730318918        2.2562858152
 H         -1.3799146066       -2.0681329851        0.7470233703
 H         -3.0527473613       -0.8055920771       -2.2019027580
 H         -2.5561978912        1.4262242528       -3.1630060566
 H         -0.8188024463        2.8447284894       -2.1686067147
 C          0.7723882854        2.2598014037        0.0282046805
 H          0.4009719151        2.5881595843        1.0101943150
 C          1.1853668248        3.4795865277       -0.7687801468
 C          0.4368358891        4.7689889339       -0.6199651565
 C          1.8147916207        4.6320754526       -0.0475124539
 H          2.6291286979        5.1566403642       -0.5243594686
 H          1.9205121004        4.5469489740        1.0245595590
 H          0.3066053905        5.3933182238       -1.4909789688
 H         -0.3958168981        4.7881202400        0.0666220275
 H          1.5820197489        3.2235772749       -1.7443480077
 O          2.2768688790        0.8222218145       -1.9574095538
