  62
        -98.94484399
 C          1.9557375165        0.4346387365       -0.0557674790
 C          2.9843356314        0.6052568017        0.9097658764
 C          4.1397614395       -0.2897735699        0.7987588573
 C          4.1649745032       -1.2256629024       -0.1668905243
 C          5.2572642928       -2.2341004871       -0.3977252073
 C          6.4343556926       -1.7005392985       -1.2257302741
 C          7.3457406972       -0.7112817932       -0.4982158719
 H          8.2405015579       -0.5898117223       -1.1120107623
 H          7.6601372961       -1.1411829222        0.4533310626
 C          6.7195314161        0.6699099115       -0.2600997176
 H          5.8524406097        0.7939269643       -0.9129036596
 H          7.4377962610        1.4468185804       -0.5315439241
 C          6.2927260370        0.9326349244        1.1841576393
 H          5.8320689755        1.9226301864        1.2304390945
 H          7.1729601931        0.9404459001        1.8307414139
 C          5.2871935524       -0.0838634547        1.7408547307
 H          4.8827080400        0.3097981975        2.6764965934
 H          5.7847386891       -1.0314890882        1.9465453099
 H          6.0410038847       -1.2350378995       -2.1324343612
 H          7.0358331841       -2.5608548809       -1.5283749266
 H          4.8029832756       -3.0659234468       -0.9405929143
 H          5.6228594309       -2.6037392373        0.5608036431
 O          3.1531876402       -1.3743694602       -1.0595690216
 C          2.0374442703       -0.5487178810       -1.0414749874
 O          1.2204380799       -0.8107157248       -1.9484430393
 O          2.9368551039        1.4721902192        1.8219133269
 C          0.7658024418        1.3745350590        0.0489026858
 C         -0.4109127114        0.6959634392        0.7087716703
 C         -0.8655787426        1.1114770656        1.9547437353
 C         -1.9526012866        0.4959915215        2.5514025560
 C         -2.6088317717       -0.5429439342        1.9169257671
 C         -2.1594525919       -0.9663562183        0.6722850525
 C         -1.0744327748       -0.3440003189        0.0728925374
 H         -0.7230088702       -0.6868170478       -0.8887589169
 N         -2.8276067198       -2.0152190220        0.0146818917
 S         -4.4931556655       -1.8846478396       -0.0996046681
 O         -5.0979228610       -2.3652310654        1.1183347679
 O         -4.8571872110       -2.5960701688       -1.3049135318
 C         -4.8074833416       -0.1367102434       -0.2769088469
 C         -5.5530852375        0.5290336386        0.6742484796
 C         -5.7486384510        1.8941495873        0.5378127256
 C         -5.1931517367        2.5667424714       -0.5391785934
 C         -4.4492707355        1.8825837457       -1.4883788570
 C         -4.2521254364        0.5178626958       -1.3586593124
 H         -3.6799679191       -0.0416693415       -2.0815716489
 H         -4.0185689881        2.4068506089       -2.3262647287
 H         -5.3395726168        3.6303697738       -0.6414397191
 H         -6.3285789420        2.4281131153        1.2731473340
 H         -5.9619867720       -0.0328194208        1.4980998319
 H         -2.4168720730       -2.2548127083       -0.8761022283
 H         -3.4541542935       -1.0388589501        2.3662161925
 H         -2.2924786389        0.8281551642        3.5202926210
 H         -0.3508100710        1.9144090025        2.4617051905
 H          1.1000156882        2.1806215288        0.7155070311
 C          0.3620601270        1.9860067127       -1.2793448530
 C         -0.4906349496        3.2179415766       -1.2806421115
 C          0.9485505314        3.3017399685       -1.6901897700
 H          1.1831608301        3.4575397813       -2.7326264689
 H          1.6463248541        3.7718052664       -1.0125401808
 H         -1.2469691121        3.3179974556       -2.0433438771
 H         -0.7717659554        3.6317926843       -0.3244314269
 H          0.1930889951        1.2540610885       -2.0580980415
