  62
        -98.94441810
 C         -1.8460793812       -1.0856158179       -0.1333837098
 C         -2.3411033990        0.0377064243       -0.8385236291
 C         -3.8023683241        0.1839450901       -0.8522492248
 C         -4.5745749984       -0.7376629630       -0.2485606881
 C         -6.0784996176       -0.7372221608       -0.1985775336
 C         -6.6651941264        0.1297320208        0.9239622174
 C         -6.5558939731        1.6393735741        0.7055992603
 H         -6.9583754808        1.8937872037       -0.2753794979
 H         -7.1924282541        2.1177454865        1.4526367947
 C         -5.1321659715        2.1977123372        0.8404648391
 H         -5.1511211290        3.1001502502        1.4555784642
 H         -4.5026148032        1.4708775831        1.3587768147
 C         -4.4677682610        2.5681064842       -0.4856731583
 H         -3.4512397705        2.9116651375       -0.2763079360
 H         -5.0129037947        3.3920382522       -0.9516683684
 C         -4.3774433145        1.4120031319       -1.4903512649
 H         -5.3600237437        1.2007784071       -1.9118349774
 H         -3.7056759570        1.7118805065       -2.2985399494
 H         -7.7232213783       -0.1268600053        1.0142311162
 H         -6.1769475078       -0.1385154393        1.8636349363
 H         -6.4769307798       -0.4097894784       -1.1592050781
 H         -6.3841985795       -1.7719439760       -0.0295105379
 O         -4.0584100636       -1.8202895825        0.3922452145
 C         -2.6885937236       -2.0079285718        0.4866553644
 O         -2.3508484921       -3.0169415938        1.1383042043
 H          1.8113414537        0.1594140668       -0.9729880314
 C          1.4046524344        0.5241892192       -0.0449668277
 C          0.3202011510       -0.1012242867        0.5486755362
 C         -0.1783250619        0.4168014318        1.7424244375
 C          0.3749583129        1.5469801097        2.3096761731
 C          1.4481151718        2.1791637727        1.7057729522
 C          1.9604989717        1.6651029065        0.5215496109
 N          3.0401162349        2.2930228785       -0.1133070776
 S          4.1965865691        1.4046750146       -0.9183689705
 O          5.3568952736        2.2699547936       -0.9457662822
 O          3.7088414218        0.9718271411       -2.2033160823
 C          4.5219151973       -0.0105425775        0.1195517376
 C          4.7992559289        0.1951645764        1.4568305640
 C          5.0568495302       -0.9007324566        2.2639030474
 C          5.0376633079       -2.1776230056        1.7234709123
 C          4.7661966878       -2.3670773189        0.3777543983
 C          4.5046938578       -1.2739904660       -0.4330366541
 H          4.2835483821       -1.3763600275       -1.4828563508
 H          4.7545157194       -3.3597954312       -0.0433692580
 H          5.2368547065       -3.0296652411        2.3541536975
 H          5.2707919873       -0.7568510025        3.3107087711
 H          4.8162988120        1.1986935806        1.8491691656
 H          3.4335474611        3.0804429630        0.3793272715
 H          1.8758683902        3.0700804399        2.1396591348
 H         -0.0304228158        1.9411317244        3.2293882236
 H         -1.0197820837       -0.0758844801        2.2110461689
 C         -0.3481920573       -1.3189195089       -0.0399104682
 H         -0.2129304047       -2.1575685580        0.6586282965
 C          0.1928301014       -1.7232337230       -1.3948584764
 C          1.3904834420       -2.6169213811       -1.4959054739
 C          0.0305063285       -3.1455381303       -1.8372633494
 H         -0.2049567428       -3.3405391347       -2.8728252799
 H         -0.4451880594       -3.8258777290       -1.1457235991
 H          1.8472487808       -2.9458388708       -0.5748896557
 H          2.0878643917       -2.4463853625       -2.3022470005
 H          0.0667929185       -0.9497032566       -2.1443328020
 O         -1.6072655868        0.8745903944       -1.4258576002
