  62
        -98.94850545
 C          1.2583542503        1.5114685412        0.5029835444
 C          2.1670102233        1.1610018686       -0.5244620375
 C          3.1930108130        0.1735722872       -0.1612177656
 C          3.2190841186       -0.3255473640        1.0876760386
 C          4.1872008847       -1.3621998149        1.5780376952
 C          3.6212692598       -2.7795727738        1.4175736547
 C          3.0532842563       -3.0718323874        0.0282313530
 H          2.7357079807       -4.1174813316        0.0241900822
 H          2.1493569549       -2.4762759836       -0.1253351667
 C          4.0362314432       -2.8337125038       -1.1266460349
 H          5.0587139258       -2.8264491033       -0.7461820047
 H          3.9556390511       -3.6686702582       -1.8260813603
 C          3.7834753917       -1.5566283640       -1.9305406802
 H          4.3666204183       -1.6157491561       -2.8536885551
 H          2.7276493763       -1.5080161844       -2.2113527294
 C          4.1585903723       -0.2422737899       -1.2340705346
 H          4.1317214166        0.5522982903       -1.9856009579
 H          5.1745794625       -0.3100808123       -0.8397819456
 H          4.4146812381       -3.4944590053        1.6455583045
 H          2.8175160410       -2.9187817214        2.1445127189
 H          4.3808579335       -1.1775423174        2.6363837075
 H          5.1205725434       -1.2684466955        1.0262588950
 O          2.3326752668        0.0384154854        2.0490116272
 C          1.3106301578        0.9313602015        1.7691860852
 O          0.5243853952        1.1283146923        2.7195043968
 O          2.1238710057        1.6446258439       -1.6860465069
 C          0.1219864685        2.4728307656        0.2113804748
 C         -0.7769000144        1.9158817661       -0.8682258116
 C         -1.4593747230        2.7144113391       -1.7781909492
 C         -2.2900555277        2.1400702128       -2.7250675298
 C         -2.4743567339        0.7698217896       -2.7772094546
 C         -1.7981809949       -0.0366395176       -1.8691145288
 C         -0.9621450743        0.5427418549       -0.9293416911
 H         -0.4219417785       -0.0966075545       -0.2495358827
 N         -1.9379584816       -1.4320348400       -1.8824136015
 S         -1.8772917719       -2.2938640129       -0.4517819963
 O         -0.5311135767       -2.3356001197        0.0603034370
 O         -2.4647180591       -3.5736363943       -0.7871639173
 C         -2.9643500503       -1.4101724843        0.6526565295
 C         -4.3200542693       -1.4846828784        0.3925369195
 C         -5.1999011331       -0.7740946342        1.1910690427
 C         -4.7117417768        0.0040233519        2.2305217112
 C         -3.3505899617        0.0646133453        2.4823313309
 C         -2.4649418382       -0.6487753147        1.6887794297
 H         -1.4022115971       -0.6112634592        1.8720489356
 H         -2.9590614439        0.6659199121        3.2876029083
 H         -5.3943504319        0.5637014808        2.8502566656
 H         -6.2597281170       -0.8255828163        1.0008008981
 H         -4.6598155537       -2.1101615302       -0.4169274217
 H         -2.6363527989       -1.7907823579       -2.5159645462
 H         -3.1222881237        0.3264623337       -3.5174490194
 H         -2.8074656569        2.7706322585       -3.4319560778
 H         -1.3338550523        3.7845233735       -1.7509792800
 H         -0.4695410322        2.5341032027        1.1378714350
 C          0.6589735401        3.8519600668       -0.1147795387
 C         -0.1040837134        5.0783443818        0.2843213750
 C          1.1584439221        4.7143426466        1.0042114036
 H          2.0416209628        5.3130691792        0.8398731329
 H          1.0818220593        4.3168670614        2.0061811542
 H         -0.0861299383        5.9333876395       -0.3746405571
 H         -1.0389097869        4.9401783586        0.8063644321
 H          1.2122254159        3.8707556201       -1.0464441711
