  62
        -98.93356376
 C         -2.2116055644       -0.8988092427       -0.1684956005
 C         -3.5174137449       -1.2361225974        0.2601441518
 C         -4.6020151791       -0.3672093647       -0.2196460138
 C         -4.3031597959        0.6654894697       -1.0287966550
 C         -5.2815235974        1.6876492282       -1.5342358186
 C         -5.5973811438        2.7077043151       -0.4214695130
 C         -7.0452618285        2.6785263577        0.0690450524
 H         -7.0915037946        3.2714553867        0.9849565299
 H         -7.6804568766        3.1675277810       -0.6724698382
 C         -7.6302903817        1.2897935706        0.3436436051
 H         -7.9311285346        0.8257968408       -0.5967358445
 H         -8.5436755042        1.4391552915        0.9232471577
 C         -6.7198357714        0.3156612336        1.1023599477
 H         -5.9818907333        0.8594290236        1.6925497035
 H         -7.3363495432       -0.2481325607        1.8053211740
 C         -6.0002450969       -0.7146524137        0.2116761455
 H         -5.8952694438       -1.6482744138        0.7720239817
 H         -6.6119959029       -0.9270557431       -0.6692387916
 H         -5.3773502669        3.7148779789       -0.7786841484
 H         -4.9227533122        2.5188049703        0.4163504644
 H         -4.8181597703        2.1859771016       -2.3859209441
 H         -6.1899980032        1.1930636592       -1.8705344195
 O         -3.0354112012        0.9523837452       -1.4262618318
 C         -1.9574076731        0.1880013732       -1.0038769751
 O         -0.8546126314        0.5740772570       -1.4373126341
 H          1.6575606969       -1.2675283888       -0.1185674162
 C          1.2557164130       -0.7415454248        0.7299102928
 C         -0.0786289855       -0.8768318435        1.0774666584
 C         -0.5570933033       -0.1772485677        2.1833611955
 C          0.2751040400        0.6518732635        2.9083527515
 C          1.6007325663        0.8055606799        2.5414031990
 C          2.0924038132        0.1031096146        1.4481262187
 N          3.4519717740        0.2098659956        1.0954213580
 S          3.9006868329        0.3531586817       -0.5271041184
 O          3.3185318833        1.5426919318       -1.1087481453
 O          3.6485389914       -0.8925758360       -1.2039762751
 C          5.6596551663        0.5755975285       -0.3244175561
 C          6.4349026097       -0.5322991995       -0.0388545523
 C          7.7980067860       -0.3664396014        0.1468235977
 C          8.3607702196        0.8972795719        0.0445102123
 C          7.5707901358        1.9993106872       -0.2453606545
 C          6.2062094975        1.8401921962       -0.4305591149
 H          5.5537648681        2.6659514049       -0.6654022512
 H          8.0111126998        2.9799480906       -0.3281272767
 H          9.4221644456        1.0235460813        0.1886148911
 H          8.4159662751       -1.2212639455        0.3695165659
 H          5.9548745000       -1.4948781265        0.0221563909
 H          3.9176712236        0.9343645566        1.6276444336
 H          2.2497757203        1.4634729799        3.0997549745
 H         -0.1107662424        1.1911204880        3.7605421602
 H         -1.5970745675       -0.2892816074        2.4593301412
 C         -1.0424530197       -1.7437434720        0.3060264677
 H         -1.4762321324       -2.4788547516        1.0001924754
 C         -0.4095889567       -2.4843433808       -0.8518111437
 C          0.3359907891       -3.7608344241       -0.6064275789
 C         -0.9969447490       -3.7910164994       -1.2902790831
 H         -1.0322944680       -4.0105883186       -2.3468112926
 H         -1.8480746555       -4.1613333352       -0.7376300300
 H          0.3914592390       -4.1167971306        0.4111842513
 H          1.2219252015       -3.9563939859       -1.1915815174
 H         -0.0393757455       -1.8187324728       -1.6246495110
 O         -3.7633337277       -2.2161445561        1.0139015767
