  62
        -98.93611507
 C         -2.2274952954       -0.7928804540        0.1421983696
 C         -3.4198285599       -0.9230649222        0.8991732156
 C         -4.3724408123        0.1995775056        0.8552935702
 C         -4.0602416253        1.2982697990        0.1439411068
 C         -4.7982778097        2.6066637868       -0.0492970125
 C         -6.2624813685        2.7450687925        0.3593510547
 C         -7.2410724177        1.9286439957       -0.4846433693
 H         -8.2341052378        2.0178146022       -0.0389980784
 H         -7.2849026541        2.3668027367       -1.4849854972
 C         -6.8991624299        0.4495025411       -0.6454169070
 H         -5.9477066655        0.3488837169       -1.1718899271
 H         -7.6663164151       -0.0039082533       -1.2790015423
 C         -6.8363599130       -0.3518840086        0.6532865654
 H         -6.7406190846       -1.4074571082        0.3846327389
 H         -7.7707894319       -0.2316301011        1.2046948239
 C         -5.6664564603       -0.0042480866        1.5896678406
 H         -5.8978127240        0.8601935165        2.2072639932
 H         -5.5067926238       -0.8532518310        2.2607054283
 H         -6.3819001661        2.5145398191        1.4138540182
 H         -6.5210742631        3.8002225960        0.2353540810
 H         -4.2136061834        3.3575791849        0.4938178849
 H         -4.6979627417        2.8513097052       -1.1117358195
 O         -2.8798527215        1.3991138001       -0.5327155456
 C         -1.9431798709        0.3744690114       -0.5664548797
 O         -0.9412902405        0.6445805866       -1.2552778129
 O         -3.6793026244       -1.9404408392        1.5951432163
 C         -1.2452910491       -1.9510811642        0.1932434621
 C          0.1262739415       -1.4420798035        0.5522670738
 C          0.4255842956       -1.1604965980        1.8818388999
 C          1.6590278207       -0.6450338350        2.2326171029
 C          2.6140851325       -0.3877174295        1.2644030125
 C          2.3160216753       -0.6438363731       -0.0667569779
 C          1.0868428484       -1.1895431778       -0.4134503068
 H          0.8607827149       -1.3756615019       -1.4518239552
 N          3.2709653057       -0.3735574136       -1.0604547573
 S          4.1449293180        1.0563944497       -0.9842828042
 O          3.4180867870        2.1119384096       -0.3183948292
 O          4.5568982756        1.3163171314       -2.3469843734
 C          5.5822938979        0.6097351165       -0.0288571140
 C          6.3181060951       -0.4876058411       -0.4316917843
 C          7.4432868428       -0.8428643241        0.2947524394
 C          7.8143811577       -0.0975312478        1.4040070447
 C          7.0680806229        1.0039020860        1.7934730456
 C          5.9407789057        1.3638386540        1.0712249853
 H          5.3274891209        2.2096092612        1.3396862033
 H          7.3578281167        1.5830931557        2.6555142464
 H          8.6904282427       -0.3762112872        1.9680727740
 H          8.0261677320       -1.6987604557       -0.0052459958
 H          5.9982746994       -1.0378027678       -1.3006480960
 H          2.9272513911       -0.5291822713       -1.9973233531
 H          3.5717539814        0.0299547911        1.5284899784
 H          1.8797019531       -0.4362235570        3.2684610176
 H         -0.3268995269       -1.3415739621        2.6369922917
 H         -1.6072493344       -2.5736527389        1.0271784596
 C         -1.2434133132       -2.8421576074       -1.0400792957
 C         -2.5299354051       -3.1878158488       -1.7268823854
 C         -1.5131450508       -2.3373667312       -2.4245381372
 H         -0.9565071559       -2.7734620362       -3.2417385922
 H         -1.7172648111       -1.2858121381       -2.5522216277
 H         -2.6788455050       -4.2007977954       -2.0688257288
 H         -3.4285301327       -2.7112607590       -1.3628630816
 H         -0.5130094249       -3.6410160704       -0.9524894477
