  62
        -98.94118021
 C         -2.5845806795       -1.2101389905        0.4201146503
 C         -2.4768505999       -0.4361999000       -0.7625685694
 C         -3.2993485900        0.7842841799       -0.8071562188
 C         -4.0711034698        1.1053220994        0.2460907115
 C         -4.9117590999        2.3439697393        0.3519526422
 C         -4.1289585999        3.4910234892        1.0062196724
 C         -2.7429593800        3.7180742395        0.4015005721
 H         -2.2955522900        4.5689522394        0.9202906722
 H         -2.1114561099        2.8506623595        0.6104416616
 C         -2.7453180305        3.9855555000       -1.1100789178
 H         -3.7442911406        4.2824446500       -1.4319511775
 H         -2.0742757206        4.8217139802       -1.3177699077
 C         -2.2663481006        2.8102440504       -1.9647013684
 H         -1.3019015004        2.4523413004       -1.5921058887
 H         -2.1031727409        3.1756045408       -2.9822865283
 C         -3.2257954605        1.6166017603       -2.0561019985
 H         -4.2189006206        1.9651957103       -2.3471582481
 H         -2.8496095606        0.9514575206       -2.8389462289
 H         -4.7180972200        4.4055500591        0.9190569828
 H         -4.0058049995        3.2656283088        2.0680986823
 H         -5.2440732002        2.6371563296       -0.6418305376
 H         -5.7847206697        2.1160194790        0.9658412423
 O         -4.1291947694        0.3522443490        1.3742584913
 C         -3.3745137892       -0.8035396409        1.4980438707
 O         -3.4855238489       -1.3685347113        2.6047553805
 H         -0.1709413392       -0.6288195106        1.6151288899
 C          0.3435122706       -1.2032217103        0.8526712296
 C         -0.3391271194       -2.2285794901        0.2089195494
 C          0.3244443004       -2.9495038097       -0.7739628110
 C          1.6334871803       -2.6416580695       -1.1021308613
 C          2.3081928403       -1.6201619896       -0.4595664511
 C          1.6519737005       -0.8889248900        0.5221195493
 N          2.3294740906        0.1467512898        1.1906486395
 S          3.1335439102        1.3005872102        0.2709958797
 O          3.1769316103        2.4795084899        1.1096426901
 O          2.5355709898        1.4607981506       -1.0334658001
 C          4.7795385602        0.6390971105        0.1179042690
 C          5.4788420106        0.3619262001        1.2762502187
 C          6.7609287806       -0.1541336097        1.1766964382
 C          7.3199854903       -0.3804058892       -0.0723841320
 C          6.6066667800       -0.0925614989       -1.2258790317
 C          5.3230595999        0.4230856410       -1.1331213112
 H          4.7288095897        0.6578617512       -2.0020872010
 H          7.0430360897       -0.2679851985       -2.1960384719
 H          8.3178755403       -0.7827352390       -0.1474060024
 H          7.3189045709       -0.3784118399        2.0715039380
 H          5.0094431208        0.5568598298        2.2260208489
 H          1.7748897007        0.5954139095        1.9055867598
 H          3.3250553702       -1.3743980394       -0.7184428913
 H          2.1350617301       -3.2043097791       -1.8747345916
 H         -0.1917781496       -3.7325769096       -1.3041679412
 C         -1.7700046193       -2.4779023704        0.6199609797
 H         -1.7780374590       -2.6484791408        1.7096279896
 C         -2.3752445393       -3.7216299903       -0.0128635606
 C         -3.8576668893       -3.8504578604       -0.1937358603
 C         -2.9652732797       -3.7208623599       -1.3896565804
 H         -2.8145035797       -4.5918145497       -2.0107589308
 H         -2.9618650299       -2.7905234897       -1.9345407501
 H         -4.3172263992       -4.8065269205        0.0072572695
 H         -4.4709070294       -3.0049365306        0.0831207102
 H         -1.8514375791       -4.6223695603        0.2921309689
 O         -1.7404194801       -0.7355543996       -1.7367858997
