  62
        -98.94285609
 C         -1.1546838287       -1.6995355524        0.1969827770
 C         -1.6055519163       -0.8343686440        1.2188365750
 C         -2.8168598962       -0.0470188190        0.9324086634
 C         -3.4016786987       -0.1702329085       -0.2715759977
 C         -4.5900367722        0.5866033194       -0.7971463038
 C         -4.1353444660        1.8444674907       -1.5576330458
 C         -3.9772282526        3.0954210471       -0.6955638478
 H         -3.5540013167        3.8757383277       -1.3324435638
 H         -4.9628670932        3.4340213231       -0.3673896134
 C         -3.0775682476        2.9315426434        0.5318984290
 H         -2.7537113883        3.9279890329        0.8409809982
 H         -2.1755450779        2.3822636802        0.2521505979
 C         -3.7860228324        2.2507867174        1.7126564858
 H         -4.8585986738        2.2311960780        1.5190762803
 H         -3.6450004535        2.8540085271        2.6122853374
 C         -3.2962008484        0.8366934840        2.0517261324
 H         -2.4429378643        0.9051215514        2.7342904785
 H         -4.0877071633        0.3083474039        2.5948179828
 H         -4.8623921418        2.0632605251       -2.3427902572
 H         -3.1825788972        1.6199392422       -2.0453683453
 H         -5.2759104258        0.8391476449        0.0061113044
 H         -5.0975984602       -0.0800821424       -1.4975112900
 O         -2.9262595843       -1.0054688703       -1.2365012900
 C         -1.7903461071       -1.7722125987       -1.0418647026
 O         -1.4604553776       -2.4634010049       -2.0246547278
 O         -1.0102867802       -0.7133446555        2.3251930552
 C          0.1183829570       -2.4940629578        0.4144331151
 C          1.2021741046       -2.0297819001       -0.5300808767
 C          2.1842023067       -2.8722714858       -1.0374590091
 C          3.1656110429       -2.3743682687       -1.8774455110
 C          3.2050880783       -1.0331134174       -2.2144599220
 C          2.2292281639       -0.1818361797       -1.7090964770
 C          1.2445640835       -0.6873630929       -0.8767522515
 H          0.4774901901       -0.0214024075       -0.5158766480
 N          2.2129707109        1.1839398096       -2.0252539559
 S          1.6650835828        2.2955752559       -0.9030022855
 O          0.2319598507        2.2215567764       -0.7733688123
 O          2.1907178261        3.5592600589       -1.3749860451
 C          2.4798796399        1.8395039069        0.6168676268
 C          3.8465565730        2.0372641140        0.6798643389
 C          4.5319462945        1.6485202511        1.8182328572
 C          3.8433725698        1.0632656898        2.8706663218
 C          2.4724207542        0.8777554950        2.7953880178
 C          1.7802041183        1.2694455209        1.6596330364
 H          0.7136789485        1.1267919895        1.5830113876
 H          1.9261585592        0.4218498619        3.6058913956
 H          4.3764549958        0.7523230084        3.7552625168
 H          5.5977494087        1.7978623128        1.8809727176
 H          4.3433868305        2.5051275930       -0.1545300222
 H          3.0133306397        1.5192611840       -2.5396741403
 H          3.9718478657       -0.6491654592       -2.8695010207
 H          3.9167377330       -3.0412806391       -2.2724998560
 H          2.1754279036       -3.9194003931       -0.7825532337
 H          0.4427723714       -2.2497337420        1.4381234893
 C         -0.1484883725       -3.9829076429        0.3322388730
 C          0.6274362035       -4.9418864974        1.1837704051
 C         -0.8116913074       -4.6622057463        1.4919715089
 H         -1.5451053023       -5.4283320037        1.2903455354
 H         -1.0425515243       -4.0544115988        2.3547962809
 H          0.8823200013       -5.9065562215        0.7714087067
 H          1.3734324587       -4.5322310312        1.8478634866
 H         -0.4379573057       -4.2975251681       -0.6639443305
