  62
        -98.93354246
 C         -1.9622900821       -0.3550333491       -0.0895397864
 C         -3.0591085494       -1.0856734542        0.4355868026
 C         -4.2956680851       -0.3300661676        0.6732974476
 C         -4.3156176846        0.9953023789        0.4477986926
 C         -5.4680720660        1.9335134962        0.6915267225
 C         -6.7214221253        1.7143787109       -0.1777372469
 C         -7.7907788036        0.8233905821        0.4666221361
 H         -7.6712908199        0.8593433647        1.5501840629
 H         -8.7750180996        1.2418088854        0.2462828270
 C         -7.8122233142       -0.6362331481        0.0026451421
 H         -8.4318243701       -1.2003790823        0.7030576388
 H         -8.2911504599       -0.6917393065       -0.9776774525
 C         -6.4497709654       -1.3197863354       -0.1142703280
 H         -5.9385765339       -0.9656536319       -1.0129103667
 H         -6.6162346342       -2.3895765944       -0.2558756574
 C         -5.5141795732       -1.1007338864        1.0906279963
 H         -6.0369406103       -0.5864947055        1.8956770047
 H         -5.1607728386       -2.0624116122        1.4680729570
 H         -7.1593406633        2.6983542674       -0.3530872733
 H         -6.4263921735        1.3157589959       -1.1481491825
 H         -5.7456404047        1.8799910563        1.7467801523
 H         -5.0728913723        2.9336795480        0.5017390618
 O         -3.2259468678        1.6706503772       -0.0058136215
 C         -2.0312431129        1.0230859454       -0.3010466800
 O         -1.1447513149        1.7852752153       -0.7277630663
 O         -3.0042917721       -2.3154461682        0.7025985319
 C         -0.6801090597       -1.1245454400       -0.3562663660
 C          0.4948946202       -0.4068086816        0.2553267262
 C          0.6469212390       -0.4193020815        1.6388248904
 C          1.6975098794        0.2460099194        2.2418346423
 C          2.6207942849        0.9369230592        1.4772986772
 C          2.4781062365        0.9548100311        0.0964052396
 C          1.4280610928        0.2761403594       -0.5083695943
 H          1.3160884355        0.3179135120       -1.5804519306
 N          3.4151914065        1.6520472955       -0.6831729221
 S          5.0370881485        1.4406397047       -0.3420908730
 O          5.4158920707        2.2649738021        0.7786661293
 O          5.7262295603        1.7101343659       -1.5846551177
 C          5.1879579560       -0.2824663007        0.0975931988
 C          4.8621099406       -1.2253943938       -0.8574028509
 C          4.9261796257       -2.5680753807       -0.5234401549
 C          5.3112716946       -2.9435933992        0.7547133935
 C          5.6406746045       -1.9854671767        1.7003577274
 C          5.5772332066       -0.6405396414        1.3718511289
 H          5.8226318793        0.1364820148        2.0772602829
 H          5.9419694869       -2.2804833354        2.6925711633
 H          5.3554438204       -3.9897383347        1.0135299204
 H          4.6726235992       -3.3157806447       -1.2577632478
 H          4.5729323272       -0.8992165774       -1.8435449024
 H          3.2296364829        1.6275133273       -1.6743948574
 H          3.4372259989        1.4765350040        1.9292793259
 H          1.7983732234        0.2311467146        3.3164310681
 H         -0.0794135134       -0.9507756678        2.2382636827
 H         -0.8190090829       -2.0723307067        0.1890477029
 C         -0.4608420125       -1.4971867968       -1.8150650692
 C         -1.6221870117       -1.8453077789       -2.6960233518
 C         -0.8340472232       -0.5977423634       -2.9538146977
 H         -0.1867568191       -0.5728952653       -3.8188998211
 H         -1.2817212441        0.3553502735       -2.7195648126
 H         -1.5200588372       -2.6719703824       -3.3827417772
 H         -2.6124931338       -1.7458958824       -2.2759745952
 H          0.4367050323       -2.0946399865       -1.9441448932
