  62
        -98.93157996
 C          1.4094610090        1.6249719845       -0.4004655604
 C          1.4107994208        0.2807707997        0.0447495617
 C          2.6980336633       -0.2479459055        0.5452453968
 C          3.7919371428        0.5332893935        0.5354377364
 C          5.2131924737        0.2755991531        0.9914813983
 C          5.6800415270       -1.1386113602        1.3259702370
 C          5.7753068649       -2.0818373307        0.1263618160
 H          6.6146677874       -1.7632842925       -0.4972156054
 H          5.9996372844       -3.0845028728        0.4967785126
 C          4.5387602254       -2.1457029029       -0.7670831369
 H          4.3537467685       -1.1634383283       -1.2065938820
 H          4.7586465459       -2.8301515711       -1.5910216196
 C          3.2618224119       -2.6328621825       -0.0856517353
 H          2.5023426482       -2.7590797334       -0.8615738874
 H          3.4404975950       -3.6063961280        0.3747983858
 C          2.6797304323       -1.6865798504        0.9767664806
 H          1.6269039599       -1.9474110176        1.1181632586
 H          3.1819560539       -1.8078042306        1.9331282797
 H          5.0526566714       -1.5667248469        2.1021140744
 H          6.6838355449       -1.0427751061        1.7490859555
 H          5.8573635799        0.6900430865        0.2092000348
 H          5.3597318658        0.9072806552        1.8746631611
 O          3.7416614440        1.8262981175        0.0958806181
 C          2.5739762633        2.3964002201       -0.3701086872
 O          2.7001364565        3.5857630699       -0.7298086518
 H         -1.7369740134        0.3763832822       -0.3396098037
 C         -1.8137504197        1.2592163265        0.2660995698
 C         -0.9394068251        2.3196197575        0.0834423753
 C         -1.0544574472        3.4194604634        0.9328413399
 C         -2.0123828905        3.4564747411        1.9279077826
 C         -2.8869738310        2.3981083074        2.0981776199
 C         -2.7791311967        1.2925204461        1.2639355818
 N         -3.6158080356        0.1845814831        1.4371445329
 S         -4.0313375668       -0.8072654343        0.1616401804
 O         -4.2457546197       -0.0482354199       -1.0493224426
 O         -5.1818212390       -1.5411660854        0.6502905665
 C         -2.6707855677       -1.9367005317       -0.0283948163
 C         -2.0696241792       -2.4503914250        1.1019699213
 C         -1.0292337412       -3.3515884609        0.9534564344
 C         -0.6126508819       -3.7250896550       -0.3143513309
 C         -1.2313437539       -3.2047794048       -1.4390107400
 C         -2.2727932051       -2.3020666141       -1.2978765842
 H         -2.7698827018       -1.8601888552       -2.1476274244
 H         -0.9002555890       -3.4885301079       -2.4256707492
 H          0.2059877714       -4.4190619270       -0.4261726008
 H         -0.5389233988       -3.7531429472        1.8262391554
 H         -2.4101303820       -2.1294059132        2.0726008517
 H         -4.3565940864        0.2887171578        2.1133477111
 H         -3.6379696857        2.4220974345        2.8732216670
 H         -2.0827051467        4.3185296700        2.5740820801
 H         -0.3714137988        4.2488395863        0.8103791444
 C          0.1695071183        2.3353521369       -0.9384648193
 H          0.4864283578        3.3857361487       -1.0259283470
 C         -0.1508718011        1.9021447907       -2.3669509180
 C         -0.5102154194        0.5098727941       -2.7894514639
 C         -1.5244767082        1.6082140226       -2.8918567881
 H         -1.7754672366        1.9782830574       -3.8756054235
 H         -2.3588987093        1.5985377659       -2.2074155016
 H         -0.0664737978        0.1331576875       -3.7007490487
 H         -0.6225133739       -0.2409522500       -2.0247047823
 H          0.5068325292        2.4248639648       -3.0581181389
 O          0.4057266065       -0.4711662520        0.0435276591
