  62
        -98.94218347
 C         -1.6212301106       -1.5080595728       -0.2097728845
 C         -2.7284689938       -0.9292340439        0.4469045261
 C         -3.2564341184        0.3201303611       -0.1244077250
 C         -2.6639492372        0.8527174053       -1.2100576105
 C         -2.9883992302        2.0980155002       -2.0084173151
 C         -3.8991920590        3.1798742080       -1.4341623592
 C         -3.3285536436        3.9185998408       -0.2242050721
 H         -4.0943245131        4.6019061054        0.1507871688
 H         -2.4755075069        4.5186100221       -0.5515306075
 C         -2.8467756062        3.0356712737        0.9248839803
 H         -2.4817648569        3.6940025556        1.7193328074
 H         -1.9904813883        2.4393917450        0.5983509685
 C         -3.9083717789        2.1184225670        1.5310308254
 H         -4.7765607191        2.7102952831        1.8286018981
 H         -3.4804699941        1.6752271149        2.4348994139
 C         -4.3832526579        0.9641399687        0.6306010264
 H         -5.1666872659        1.2885090514       -0.0499455676
 H         -4.8066236231        0.1871416206        1.2741770951
 H         -4.8767948003        2.7680738057       -1.2010860471
 H         -4.0460548555        3.9161565278       -2.2292225459
 H         -3.4189641979        1.7473589913       -2.9532119857
 H         -2.0185808832        2.5432955402       -2.2531869993
 O         -1.6114704284        0.2435285287       -1.8252517025
 C         -1.0289290053       -0.9008902966       -1.3163334851
 O         -0.0180514283       -1.2836773597       -1.9366821554
 O         -3.2515310312       -1.4299201604        1.4818817314
 C         -0.9542054152       -2.7340201822        0.3920426623
 C          0.4590632988       -2.3539981976        0.7585307115
 C          1.5831104010       -3.0909642248        0.4107345620
 C          2.8531332383       -2.6051929625        0.6755127944
 C          3.0288291225       -1.3650888329        1.2627013487
 C          1.9091467783       -0.6356422550        1.6381052515
 C          0.6431108190       -1.1456245953        1.4204700924
 H         -0.2214126507       -0.5593310660        1.7078919689
 N          2.0817873344        0.6913898577        2.1362745076
 S          1.8173342215        1.7936267276        0.8768647956
 O          2.0413377699        3.1048513822        1.4501589412
 O          0.5185913449        1.6043656715        0.2666049198
 C          3.1275460142        1.3769481288       -0.2467877843
 C          4.3765102191        1.9218010255       -0.0181007382
 C          5.4270425464        1.5584619598       -0.8444556419
 C          5.2115208613        0.6548583364       -1.8746993308
 C          3.9518202052        0.1170778201       -2.0886296777
 C          2.8935085115        0.4775063565       -1.2679495506
 H          1.9037490743        0.0688762840       -1.4098349646
 H          3.7793475353       -0.5881997838       -2.8856952445
 H          6.0297720838        0.3666660038       -2.5156890073
 H          6.4077032854        1.9755197206       -0.6813275808
 H          4.4910057271        2.6188585832        0.7956580298
 H          1.4301274642        0.9139111554        2.8784277792
 H          4.0108646730       -0.9525808628        1.4268867544
 H          3.7163501842       -3.1863616466        0.3907543188
 H          1.4642334079       -4.0378267932       -0.0902100957
 H         -1.5152718471       -2.9562363876        1.3118071135
 C         -1.0440174538       -3.9212092338       -0.5414809666
 C         -1.0305739552       -5.3156605253        0.0083552552
 C         -2.2969958107       -4.7427586261       -0.5509744142
 H         -2.6612202375       -5.1153548299       -1.4964444761
 H         -3.0806319563       -4.4586437798        0.1362256352
 H         -0.5273932183       -6.0869914805       -0.5546240349
 H         -0.9570545465       -5.4301538785        1.0791980015
 H         -0.5583468319       -3.7375912178       -1.4931584657
