  62
        -98.94602982
 C         -1.6974217771       -1.2206586939       -0.8027372187
 C         -2.8533473085       -0.6791805964       -0.1810202868
 C         -3.2031754735        0.6982073795       -0.5356826984
 C         -2.4603384914        1.3594155919       -1.4409776144
 C         -2.6635518377        2.7804701616       -1.8891837926
 C         -2.0023764531        3.8026620293       -0.9540192542
 C         -2.7211428330        4.0170937258        0.3786917712
 H         -2.2978049350        4.9172515139        0.8290562948
 H         -3.7795305871        4.2086022286        0.1960503245
 C         -2.5675471677        2.8551988797        1.3707079335
 H         -1.7191522711        2.2322868510        1.0733213417
 H         -2.3300339815        3.2532415210        2.3606641653
 C         -3.8126168568        1.9798885939        1.5240068923
 H         -4.6204087352        2.5692095046        1.9646906384
 H         -3.5723382640        1.1662558440        2.2135876187
 C         -4.3193317528        1.3569937380        0.2165296008
 H         -5.0539937273        0.5873796076        0.4664078316
 H         -4.8008140387        2.1151475012       -0.4006503673
 H         -0.9747884894        3.4835549418       -0.7591116806
 H         -1.9640921221        4.7581688932       -1.4828310413
 H         -2.2055928807        2.8675905168       -2.8768085134
 H         -3.7287884742        2.9957080463       -1.9771196089
 O         -1.4090866739        0.7839039525       -2.0729700335
 C         -0.9560171354       -0.4807018511       -1.7224024246
 O          0.0877404252       -0.8074345791       -2.3235537473
 H          0.8872086147       -0.9564386351       -0.0069012550
 C          0.6313934330       -1.4373149885        0.9219287619
 C         -0.4170621100       -2.3462757253        0.9565644111
 C         -0.7212711363       -2.9717683422        2.1583820881
 C         -0.0088538462       -2.6671249927        3.3054582263
 C          0.9875231017       -1.7090515427        3.2807639395
 C          1.3029136407       -1.0799639470        2.0797446319
 N          2.2896381397       -0.0866525511        2.0296169616
 S          2.1542957027        1.2717669704        1.0461578395
 O          2.6559005371        2.3585005969        1.8647507193
 O          0.8192886242        1.4344946021        0.5264787139
 C          3.3483411455        0.9514637411       -0.2360649058
 C          2.9650633606        0.4732584743       -1.4717430068
 C          3.9443860771        0.2141212180       -2.4200341727
 C          5.2790349185        0.4352213204       -2.1211216911
 C          5.6479197817        0.9195219563       -0.8746644804
 C          4.6761325315        1.1793251258        0.0763750663
 H          4.9156755207        1.5699301904        1.0514560896
 H          6.6863474846        1.0941499997       -0.6434764929
 H          6.0337858666        0.2307889349       -2.8641424464
 H          3.6486131447       -0.1623772941       -3.3863885744
 H          1.9221092692        0.3027434291       -1.6926398216
 H          2.6756437790        0.1619366237        2.9287459846
 H          1.5129689359       -1.4387477111        4.1842974324
 H         -0.2526921476       -3.1581906626        4.2354157896
 H         -1.5376017239       -3.6774854743        2.1977810266
 C         -1.2459138780       -2.5778904773       -0.2871711331
 H         -2.1636988798       -3.0995547277        0.0184910033
 C         -0.5105225901       -3.4453798562       -1.2854831050
 C         -0.5121184216       -4.9317143854       -1.0933974779
 C         -1.2934741289       -4.3198249087       -2.2163075208
 H         -0.9353405461       -4.4423570390       -3.2270896893
 H         -2.3705511265       -4.2962474476       -2.1356473330
 H          0.3857884720       -5.4806311247       -1.3313099829
 H         -1.0612184596       -5.3289273485       -0.2532451239
 H          0.3896018273       -2.9890342167       -1.6745914194
 O         -3.5563906422       -1.3235744725        0.6441151308
