  62
        -98.93297376
 C         -2.1731941226       -1.0008451258       -0.3962618555
 C         -3.4568726583       -1.0698448073        0.1943679110
 C         -4.3221266104        0.1148221279        0.0500076774
 C         -3.8363783033        1.2027473994       -0.5744242119
 C         -4.5159506536        2.5225549330       -0.8389008343
 C         -5.3242679429        3.1263691375        0.3200021289
 C         -6.8362284079        3.0937924382        0.0896242313
 H         -7.2977523651        3.8800843479        0.6910896299
 H         -7.0327329413        3.3280333075       -0.9586429953
 C         -7.5198842171        1.7758723544        0.4495391616
 H         -8.5559645737        1.8373461019        0.1083897707
 H         -7.5418682663        1.6653429229        1.5358830268
 C         -6.8798955390        0.5219756857       -0.1495863582
 H         -7.6406552536       -0.2610603297       -0.1750169493
 H         -6.5754786301        0.7031892348       -1.1796697727
 C         -5.6902760961       -0.0100544466        0.6634166766
 H         -5.6761556365        0.4551691723        1.6534044745
 H         -5.8160753336       -1.0828867946        0.8396045386
 H         -5.0707839499        2.6217658940        1.2511396905
 H         -5.0225167951        4.1696008867        0.4273360392
 H         -5.1550617629        2.4128901589       -1.7186136573
 H         -3.7098441631        3.2029260847       -1.1228515255
 O         -2.5805421297        1.2346683438       -1.1055204142
 C         -1.7227289754        0.1499762118       -1.0411309278
 O         -0.6205013485        0.3401200809       -1.5905006610
 O         -3.8708244186       -2.0863349728        0.8144791275
 C         -1.2543784424       -2.2047874572       -0.2687352517
 C         -0.1056036411       -1.8211083288        0.6304086578
 C         -0.3169764133       -1.7637942596        2.0056009826
 C          0.6885204776       -1.3476427414        2.8570435509
 C          1.9249198106       -0.9758278903        2.3571463883
 C          2.1420088705       -1.0207608191        0.9872111883
 C          1.1334957569       -1.4513633622        0.1335451524
 H          1.3103386905       -1.4658775637       -0.9302141285
 N          3.3970178145       -0.6528505798        0.4604041333
 S          4.0931956641        0.7715924001        1.0441771407
 O          4.6654854030        0.5009679679        2.3399026025
 O          3.1430368861        1.8611369291        0.9919778306
 C          5.3939288611        1.0132853087       -0.1491536382
 C          6.6275623464        0.4333851530        0.0768866059
 C          7.6268251866        0.5954844262       -0.8695552949
 C          7.3765919120        1.3287508679       -2.0198173279
 C          6.1332527349        1.9055271787       -2.2323795758
 C          5.1290112752        1.7464318597       -1.2904064439
 H          4.1500724997        2.1835745642       -1.4114522665
 H          5.9415234706        2.4769207892       -3.1264283125
 H          8.1554540703        1.4543672117       -2.7552472897
 H          8.5953735771        0.1508066402       -0.7075040380
 H          6.7765903394       -0.1208204168        0.9886617466
 H          3.3711629483       -0.6263634363       -0.5508511489
 H          2.7130106207       -0.6340703431        3.0082404466
 H          0.5103855901       -1.3072904302        3.9213727531
 H         -1.2882016730       -2.0360535166        2.3954580546
 H         -1.8493458141       -2.9711116493        0.2460909188
 C         -0.8314365334       -2.7400450709       -1.6200895012
 C         -0.2212088381       -4.1059897483       -1.7102069514
 C         -1.6041799692       -3.8667616970       -2.2347209876
 H         -1.7580343974       -3.8616906154       -3.3033832407
 H         -2.4396407121       -4.2620573249       -1.6759138530
 H          0.5761801311       -4.2699082316       -2.4187043421
 H         -0.1159979182       -4.6633859554       -0.7918477802
 H         -0.4632574150       -1.9716611249       -2.2891390397
