  62
        -98.93861919
 C          1.2887467892        1.0165890298       -0.9134101209
 C          2.6689032393        1.2555108403       -0.6509102918
 C          3.5573316896        0.0909447606       -0.6227335216
 C          3.0508968098       -1.1343188997       -0.8430675707
 C          3.8210460301       -2.4265980295       -0.8592199404
 C          4.0462903110       -3.0315657487        0.5332038098
 C          5.0733244413       -2.3021515880        1.4004446488
 H          5.2970079820       -2.9535513674        2.2476740491
 H          5.9974102910       -2.1724500880        0.8360809883
 C          4.5995142713       -0.9435873378        1.9360520084
 H          3.5113320712       -0.8783750181        1.8540927889
 H          4.8421396418       -0.8667309771        2.9985325282
 C          5.2242063406        0.2661534820        1.2403320074
 H          6.2991397407        0.2845280024        1.4335739068
 H          4.7881267306        1.1707779321        1.6716806571
 C          4.9992917098        0.3089528111       -0.2764589625
 H          5.2821073993        1.3009653110       -0.6368713532
 H          5.6240215597       -0.4350822490       -0.7703993825
 H          3.0877344413       -3.0687035386        1.0573100903
 H          4.3875109812       -4.0597899887        0.3911786602
 H          3.2334253600       -3.1323882100       -1.4502411297
 H          4.7822608198       -2.2750967195       -1.3515507910
 O          1.7361079497       -1.3300714102       -1.1064348699
 C          0.8189212094       -0.2832000904       -1.1243128200
 O         -0.3377116706       -0.6778117408       -1.3591032591
 O          3.1459514091        2.4059116205       -0.4519517127
 C          0.4168844389        2.2631939496       -0.8739455011
 C         -0.4335325204        2.3331787601        0.3745244593
 C         -0.2842150302        3.3935735606        1.2632124486
 C         -1.0554659596        3.4678643311        2.4090901390
 C         -1.9785590392        2.4792736110        2.6996711801
 C         -2.1334404094        1.4149025205        1.8193634507
 C         -1.3780429900        1.3579112300        0.6570753703
 H         -1.4987268701        0.5237600196       -0.0116605691
 N         -3.0669330090        0.3985445904        2.0693211718
 S         -2.6944545588       -1.1848166298        1.6616165625
 O         -3.5988514082       -1.9787479696        2.4730058134
 O         -1.2898798686       -1.4656585693        1.8569246818
 C         -3.1826303897       -1.3633935208       -0.0399141872
 C         -4.1118996902       -0.4992746114       -0.5824721072
 C         -4.5096951709       -0.6862542822       -1.8963546768
 C         -3.9807442310       -1.7307322524       -2.6380860265
 C         -3.0550083205       -2.5939186919       -2.0744893166
 C         -2.6508688298       -2.4111823611       -0.7620586069
 H         -1.9173040794       -3.0477746306       -0.2937348870
 H         -2.6372344506       -3.4020769721       -2.6535232964
 H         -4.2863404115       -1.8700100131       -3.6632689163
 H         -5.2262489413       -0.0129617826       -2.3388465368
 H         -4.4955294301        0.3103699689        0.0158594726
 H         -3.5394376785        0.4538701807        2.9598297820
 H         -2.5707743187        2.5262019813        3.6010120604
 H         -0.9284796894        4.2962020615        3.0895839685
 H          0.4536988495        4.1552135807        1.0561271878
 H          1.1617020588        3.0710736799       -0.7906944720
 C         -0.4152809818        2.6225910987       -2.1007196609
 C         -0.1020756024        2.1104078981       -3.4727973108
 C         -1.3888717820        1.7287117081       -2.8044822799
 H         -2.3042619423        2.1746859577       -3.1650520596
 H         -1.4944444115        0.7123106083       -2.4656625292
 H         -0.1221427731        2.8009764476       -4.3028397511
 H          0.6599658077        1.3481651782       -3.5538396808
 H         -0.7118068420        3.6674030787       -2.0489059913
