  62
        -98.93876849
 C          0.9179659400        1.5557713456       -0.0453447585
 C          1.5438490414        0.7184123596        0.9118974076
 C          2.4885236016       -0.2808800868        0.3967070665
 C          2.6955665058       -0.3724595347       -0.9290130586
 C          3.5588298905       -1.3819707828       -1.6390551716
 C          5.0722502739       -1.3108663289       -1.3584006297
 C          5.5511887098       -2.2376923187       -0.2341053759
 H          4.8435873177       -3.0618434590       -0.1349853409
 H          6.5065852583       -2.6782269639       -0.5262846447
 C          5.7619925272       -1.5755616339        1.1307135446
 H          5.8529007627       -2.3683742995        1.8761646170
 H          6.7060005169       -1.0260862862        1.1178956204
 C          4.6709388811       -0.6010196490        1.5736394566
 H          4.7672348991        0.3346130385        1.0177780332
 H          4.8405259478       -0.3552938824        2.6237548231
 C          3.2311917952       -1.1208614530        1.3951519027
 H          3.2319755649       -2.1668774998        1.0914165882
 H          2.6886807038       -1.0353709525        2.3386043316
 H          5.5767675514       -1.6044041945       -2.2803856068
 H          5.3549897959       -0.2790922556       -1.1508719875
 H          3.1898901277       -2.3826568532       -1.4001784676
 H          3.3833822396       -1.2128868282       -2.7038288506
 O          2.0807696401        0.4521231534       -1.8181385894
 C          1.1787107997        1.4277597126       -1.4115590481
 O          0.7051674306        2.0898555707       -2.3549407338
 H         -1.1698374074        0.6670949299       -1.1926072768
 C         -1.8842936133        1.0611147186       -0.4875586976
 C         -1.5093757618        2.0376775562        0.4206177209
 C         -2.4744939761        2.5393716736        1.2892565653
 C         -3.7747441983        2.0727049342        1.2452492839
 C         -4.1357424999        1.0746920689        0.3565441639
 C         -3.1803703137        0.5644373878       -0.5125594850
 N         -3.4937064261       -0.4681445505       -1.4151654171
 S         -2.4735679710       -1.7962893552       -1.4735627737
 O         -1.2457473585       -1.4697976089       -2.1523898546
 O         -3.2766602672       -2.8379726891       -2.0778627938
 C         -2.1650692477       -2.1764971875        0.2401260063
 C         -1.0162069311       -1.7099279823        0.8441612507
 C         -0.8392773214       -1.9161320440        2.2030378356
 C         -1.8069818135       -2.5930365641        2.9285732624
 C         -2.9496932249       -3.0716260587        2.3043390087
 C         -3.1382735606       -2.8539715552        0.9495404912
 H         -4.0111093016       -3.2086732512        0.4257232408
 H         -3.6959912933       -3.6042651382        2.8713438022
 H         -1.6666659047       -2.7483636419        3.9865662063
 H          0.0443876215       -1.5215978637        2.6796904324
 H         -0.2773427783       -1.1904993813        0.2538597715
 H         -4.4576366229       -0.7690827669       -1.3796893242
 H         -5.1453056528        0.6942262646        0.3338610660
 H         -4.5126773141        2.4750594050        1.9218326204
 H         -2.1974971427        3.2970804554        2.0054759897
 C         -0.0890085526        2.5574904930        0.4827750621
 H          0.1629619422        2.6877117092        1.5453195257
 C         -0.0064778689        3.9116283132       -0.1978011226
 C         -0.2608745016        5.1654414526        0.5816510391
 C          1.1290436257        4.8323230474        0.1315680936
 H          1.5730932786        5.4052946207       -0.6682931289
 H          1.8391995617        4.4992673624        0.8746654762
 H         -0.7797339760        5.9756087333        0.0929821007
 H         -0.4779468260        5.0736172189        1.6347397119
 H         -0.3331383200        3.8844847963       -1.2299323052
 O          1.3130054597        0.7951630617        2.1489046201
