  62
        -98.94398687
 C          2.0673606693        0.7409837392        0.1739386394
 C          1.7853942221        1.7979359684       -0.7212506199
 C          0.8025825744        2.8005084648       -0.2713066237
 C          0.2441874601        2.6642356043        0.9438878691
 C         -0.8388498114        3.5015730680        1.5663879779
 C         -2.2249973994        2.9149975057        1.2453671787
 C         -2.8619419883        3.4366041443       -0.0410054127
 H         -3.7856996679        2.8742097032       -0.1970153403
 H         -3.1318537854        4.4871172355        0.0905633484
 C         -1.9993549223        3.3063452972       -1.2986232361
 H         -1.5420300492        2.3149232309       -1.3350290695
 H         -2.6623046918        3.3742934297       -2.1642857203
 C         -0.9239101638        4.3972985563       -1.4114119264
 H         -1.1334148214        5.1845290313       -0.6871869061
 H         -0.9835549377        4.8612392266       -2.3986278079
 C          0.5206513918        3.9102481679       -1.2470021440
 H          0.8827145726        3.5313706520       -2.2084092888
 H          1.1569925925        4.7652085928       -0.9908171345
 H         -2.1299308999        1.8272106554        1.1850538290
 H         -2.9016610107        3.1398202467        2.0723755563
 H         -0.6820088030        3.4562998911        2.6459782430
 H         -0.7649939438        4.5361909940        1.2457186967
 O          0.5728041324        1.6499621343        1.7906745265
 C          1.4649593764        0.6549294137        1.4276247980
 O          1.6295550567       -0.2263106490        2.2925111888
 O          2.3253347950        1.8934913442       -1.8577801458
 C          2.9818861831       -0.3869055881       -0.2714704539
 C          2.1773151607       -1.6643404190       -0.3205729826
 C          2.5618100631       -2.8479987673        0.2947160177
 C          1.7404626555       -3.9613719679        0.2395764888
 C          0.5220766324       -3.9150119827       -0.4123961563
 C          0.1330025169       -2.7387278585       -1.0451203479
 C          0.9712066422       -1.6358770599       -1.0115944513
 H          0.6673313524       -0.7281082961       -1.5127163797
 N         -1.0912664564       -2.6631727668       -1.7339888417
 S         -2.1412695815       -1.3820469604       -1.5126213489
 O         -3.3114431881       -1.7381714521       -2.2844658747
 O         -1.4960431641       -0.1431056540       -1.8590638297
 C         -2.5525570504       -1.3945768671        0.2211000228
 C         -3.7667710719       -1.9063778244        0.6353092399
 C         -4.0550594898       -1.9306515137        1.9905027635
 C         -3.1264954256       -1.4553724725        2.9051351004
 C         -1.9091901370       -0.9508946630        2.4742327932
 C         -1.6204452094       -0.9176712464        1.1195918188
 H         -0.6822068719       -0.5293294486        0.7563120107
 H         -1.1714357027       -0.5819878756        3.1699384348
 H         -3.3504102541       -1.4761979686        3.9599730932
 H         -5.0010284913       -2.3206806042        2.3301686336
 H         -4.4588690426       -2.2618299583       -0.1108480328
 H         -1.6087123950       -3.5305409145       -1.7508688658
 H         -0.1232337926       -4.7799437488       -0.4378444495
 H          2.0480273122       -4.8749063865        0.7251797974
 H          3.4987963773       -2.8972544620        0.8242497785
 H          3.2845319025       -0.1314049842       -1.2979098864
 C          4.2173569464       -0.4704819834        0.5979577635
 C          5.4861438856       -1.0473970829        0.0470393366
 C          5.3782508060        0.4265406849        0.2938601537
 H          5.9280503283        0.8552708944        1.1181821059
 H          5.2864408598        1.0848672405       -0.5579264852
 H          6.1154878307       -1.6301161409        0.7024985282
 H          5.4757516564       -1.3911609795       -0.9762926678
 H          3.9825735745       -0.6467728600        1.6413210154
