  62
        -98.93792131
 C         -1.7639472362       -1.6468749563        0.0749950503
 C         -1.6643347944       -0.3002522854       -0.3380141507
 C         -2.8988063850        0.5056961844       -0.2697578896
 C         -4.0296883776       -0.0693902333        0.1774029735
 C         -5.4022164675        0.5370680724        0.3253464866
 C         -5.4709231594        1.9416637573        0.9448094860
 C         -5.8627683640        3.0294448287       -0.0567834005
 H         -6.6368335962        2.6318537378       -0.7164772144
 H         -6.3009952735        3.8668928039        0.4906878254
 C         -4.7144779854        3.5804742495       -0.9004298011
 H         -5.1475534071        4.2358419833       -1.6597944076
 H         -4.0676788919        4.1958410790       -0.2714303939
 C         -3.8500126880        2.5278415959       -1.5975047830
 H         -3.3615781023        3.0076591266       -2.4484491321
 H         -4.4711563804        1.7278940227       -1.9989014184
 C         -2.7512245557        1.9400893672       -0.6994004434
 H         -2.6269236957        2.5625011179        0.1916138964
 H         -1.7925481533        1.9703530600       -1.2271601209
 H         -4.5205909623        2.1853790423        1.4170275016
 H         -6.2265505711        1.9212754080        1.7317713957
 H         -5.8868942428        0.5397164826       -0.6541425580
 H         -5.9587833871       -0.1696919724        0.9449733882
 O         -4.0793310585       -1.3787946427        0.5585735560
 C         -2.9645170034       -2.1949161086        0.5230483279
 O         -3.1635338444       -3.3623885661        0.9148173458
 O         -0.5922525268        0.2153631719       -0.7492223300
 C         -0.5392601355       -2.5435591186        0.0372109895
 C          0.5630760603       -1.9351537704        0.8695276335
 C          0.2972393011       -1.6277041222        2.2024818943
 C          1.2688124598       -1.0666710641        3.0074057409
 C          2.5258143230       -0.7899496148        2.4971103396
 C          2.8032024569       -1.0960804892        1.1712520909
 C          1.8287377724       -1.6767543319        0.3686280135
 H          2.0745510478       -1.8974578422       -0.6560907244
 N          4.0790051897       -0.8486205450        0.6292924668
 S          4.2329101769        0.1178177052       -0.7304953996
 O          3.5189686781       -0.4679598684       -1.8341100141
 O          5.6613380401        0.2734409713       -0.9044359059
 C          3.5234681970        1.6853108346       -0.2581079647
 C          2.1517173625        1.8373462362       -0.2412142075
 C          1.6241080206        3.0456322385        0.1891541221
 C          2.4647307676        4.0711190179        0.5919238765
 C          3.8409411671        3.8999804686        0.5689822868
 C          4.3766821435        2.6951529088        0.1452808924
 H          5.4395518655        2.5183783412        0.1066355883
 H          4.4946669584        4.6985899683        0.8809998191
 H          2.0447915484        5.0076000053        0.9241259176
 H          0.5524946913        3.1666797664        0.2046800782
 H          1.5059620239        1.0336913486       -0.5578867913
 H          4.7606018885       -0.5576945058        1.3166408435
 H          3.2859978447       -0.3451027857        3.1213708421
 H          1.0460088784       -0.8359730827        4.0382193654
 H         -0.6885305607       -1.8365907298        2.5964756044
 H         -0.8415210996       -3.4899009185        0.5092306791
 C         -0.1374276528       -2.8239943490       -1.3953947301
 C          0.5961910657       -4.0851447438       -1.7352852298
 C         -0.8356673725       -3.9170211855       -2.1445212746
 H         -1.0605419363       -3.7643991704       -3.1894996003
 H         -1.5905842110       -4.4781146398       -1.6126029667
 H          1.3585130653       -4.0458151484       -2.4989619861
 H          0.8156419583       -4.7686239231       -0.9288907350
 H          0.1157076819       -1.9255777254       -1.9474030171
