  62
        -98.94213724
 C         -2.2299303859       -0.8787911092        0.1263010803
 C         -1.6389890914       -0.0680357501       -0.8702881839
 C         -2.0568751331        1.3447134324       -0.9033144192
 C         -2.8880411422        1.8053235642        0.0470959077
 C         -3.5076437700        3.1734489741        0.2033715773
 C         -2.6777511720        4.3999360100       -0.1836569368
 C         -1.1963634026        4.3258548218        0.2133477952
 H         -0.9318320634        5.2217743231        0.7785761722
 H         -1.0194972916        3.4670265481        0.8648019954
 C         -0.2592825723        4.2272924897       -0.9913634684
 H          0.7418145229        4.5366952251       -0.6808167473
 H         -0.5962457416        4.9191764884       -1.7670146346
 C         -0.1352165984        2.8224230272       -1.5753807058
 H          0.5332866729        2.8691098173       -2.4386410733
 H          0.3345268213        2.1734120578       -0.8323224724
 C         -1.4602783356        2.1709282298       -2.0076909786
 H         -2.1629414292        2.9148184624       -2.3765723981
 H         -1.2422377119        1.4693990506       -2.8176620054
 H         -2.7542290075        4.5710026396       -1.2562542462
 H         -3.1438746800        5.2573938982        0.3056274477
 H         -3.7811599079        3.2402535738        1.2599144484
 H         -4.4417188807        3.1809595706       -0.3678554908
 O         -3.3553397345        1.0060549319        1.0514875204
 C         -3.0462110133       -0.3398170797        1.1161608157
 O         -3.5481175758       -0.9398880003        2.0913967937
 O         -0.8196247112       -0.5090814618       -1.7175008449
 C         -1.9051091653       -2.3624028298        0.1920423821
 C         -0.4107806611       -2.5296257139        0.3074656305
 C          0.3464395816       -3.3620125228       -0.5062693871
 C          1.7268883259       -3.3862784866       -0.3986121006
 C          2.3802474421       -2.5669371449        0.5043239571
 C          1.6278402651       -1.7535724739        1.3402463359
 C          0.2473303759       -1.7602681954        1.2595077589
 H         -0.3295642626       -1.1099557400        1.9066930068
 N          2.3064973161       -0.8362698280        2.1994943220
 S          2.2848547496        0.7052250346        1.4999577551
 O          3.0424957242        1.5545056246        2.3955802168
 O          0.9307231676        1.1457630871        1.2387953460
 C          3.1844756236        0.4401488518       -0.0084649254
 C          4.5605224670        0.5588348425        0.0315900895
 C          5.2894142616        0.3049196232       -1.1184912494
 C          4.6320187777       -0.0678064330       -2.2816788541
 C          3.2510956026       -0.1857020394       -2.3027559486
 C          2.5132041261        0.0672578170       -1.1562587491
 H          1.4376290634       -0.0267519255       -1.1512227095
 H          2.7341312261       -0.4792439080       -3.2021295235
 H          5.1984529400       -0.2687162444       -3.1774226375
 H          6.3636222414        0.3952474553       -1.1039286252
 H          5.0228770492        0.8528367356        0.9595670791
 H          1.8703779397       -0.7635529934        3.1101038269
 H          3.4557520375       -2.5421526227        0.5692145740
 H          2.3012371126       -4.0315444130       -1.0449052938
 H         -0.1450500773       -3.9782900842       -1.2411299886
 H         -2.3725801825       -2.7365768990        1.1146652592
 C         -2.5081825938       -3.0833920817       -0.9950169966
 C         -2.8809021037       -4.5309271814       -0.8891925271
 C         -3.9509068989       -3.4832054473       -0.9423260881
 H         -4.5439801784       -3.3932072530       -1.8398849476
 H         -4.4948362525       -3.2559082315       -0.0366787199
 H         -2.7438368020       -5.1636799574       -1.7528710635
 H         -2.7040023089       -5.0252205766        0.0540176341
 H         -2.1252913303       -2.7181944851       -1.9408701070
