  62
        -98.94284196
 C         -2.4611044247       -0.9027971816        0.5038655377
 C         -2.4797045673        0.2311827100       -0.3437661120
 C         -3.5607128280        1.1934748906       -0.0930678184
 C         -4.4334937076        0.9772135320        0.9074348993
 C         -5.5729975119        1.8781710962        1.2997959539
 C         -6.8471700602        1.6724396828        0.4691126649
 C         -6.7807543093        2.1977709365       -0.9654872276
 H         -7.7998634522        2.1888661005       -1.3572346103
 H         -6.4449806708        3.2351755426       -0.9561400411
 C         -5.8856803344        1.3730574908       -1.9009705855
 H         -5.6960053045        0.3942032851       -1.4544453637
 H         -6.4082051623        1.1982793796       -2.8442312449
 C         -4.5472077001        2.0294588822       -2.2394291871
 H         -3.9804311842        1.3439509036       -2.8746086782
 H         -4.7217654860        2.9467477178       -2.8061665583
 C         -3.6827447999        2.3670514914       -1.0176520936
 H         -4.0960879447        3.2264315043       -0.4903079774
 H         -2.6782886965        2.6189046720       -1.3665956029
 H         -7.0877290474        0.6068772560        0.4563090738
 H         -7.6590678844        2.1898877015        0.9853218801
 H         -5.2569517171        2.9194757144        1.2315490985
 H         -5.8024267996        1.6518453676        2.3432658711
 O         -4.3634291383       -0.1130984913        1.7173662768
 C         -3.3893069918       -1.0794059858        1.5308672804
 O         -3.4497899931       -2.0316613725        2.3351137572
 O         -1.6447062527        0.4356931028       -1.2625865929
 C         -1.3938391893       -1.9715487184        0.3351197823
 C         -0.0429770476       -1.3575531845        0.6120590962
 C          0.2358306264       -0.9282102091        1.9075347346
 C          1.4462434475       -0.3360660483        2.2101810487
 C          2.4028907623       -0.1495043301        1.2265984694
 C          2.1364970624       -0.5753444543       -0.0666778096
 C          0.9229804045       -1.1852329855       -0.3649463354
 H          0.7299784065       -1.5061433985       -1.3763666212
 N          3.0875914610       -0.3670278581       -1.0759544275
 S          4.7035195636       -0.6873067078       -0.7836381413
 O          5.2861692448       -0.9013749805       -2.0903426591
 O          4.8688466613       -1.7562011843        0.1740296118
 C          5.3328360292        0.8373329748       -0.1123771067
 C          6.0532491282        0.8244093244        1.0658500318
 C          6.5473518122        2.0204156543        1.5629865836
 C          6.3146015072        3.2017959723        0.8758628516
 C          5.5909279332        3.1975474571       -0.3073796436
 C          5.0954304762        2.0052313469       -0.8102591592
 H          4.5296779268        1.9610803822       -1.7259667329
 H          5.4107571416        4.1184266584       -0.8384058400
 H          6.6988575100        4.1315832431        1.2647194102
 H          7.1099908329        2.0257723404        2.4827211282
 H          6.2042836186       -0.1171229857        1.5696384778
 H          2.7991219516       -0.6806338093       -1.9905607565
 H          3.3471276249        0.3172037139        1.4546327467
 H          1.6477046045       -0.0108189081        3.2196381007
 H         -0.5167456770       -1.0648574106        2.6726088634
 H         -1.5901359498       -2.7210838064        1.1144438343
 C         -1.5086015398       -2.6374079424       -1.0195520381
 C         -0.8889296158       -3.9835365702       -1.2410043470
 C         -2.3794841504       -3.8474732228       -1.1636962782
 H         -2.9559321989       -3.9629144172       -2.0693756895
 H         -2.8822184591       -4.2079817405       -0.2779951740
 H         -0.4425026004       -4.1971090181       -2.2005952512
 H         -0.3764368171       -4.4397159827       -0.4073416982
 H         -1.5031602183       -1.9306712420       -1.8409214064
