  62
        -98.94604753
 C         -1.9326874012       -1.3066089299        0.2233700094
 C         -1.7473595109        0.0914090101        0.1073597293
 C         -2.9269569808        0.9147995603        0.4006389990
 C         -4.0820650210        0.3258717806        0.7602840488
 C         -5.3645393410        1.0315286208        1.1088765485
 C         -6.2172456806        1.4149153309       -0.1084058317
 C         -5.6767396803        2.5773062707       -0.9423101817
 H         -6.4744641801        2.8801514508       -1.6235044619
 H         -5.4675494602        3.4251547407       -0.2893031418
 C         -4.4269311702        2.2385078204       -1.7669224015
 H         -4.3243953303        1.1534992303       -1.8442402513
 H         -4.5467758799        2.6205647903       -2.7833118715
 C         -3.1254040802        2.8201157502       -1.2149291612
 H         -2.3037067801        2.4861507500       -1.8537489210
 H         -3.1643213799        3.9108347002       -1.2586071214
 C         -2.8086455205        2.3987143903        0.2256981989
 H         -1.7746645805        2.6751312301        0.4451425090
 H         -3.4656340406        2.9182081905        0.9227804587
 H         -6.3348940507        0.5341766408       -0.7440426517
 H         -7.2072041407        1.6912715411        0.2618478480
 H         -5.9405890712        0.3406111410        1.7281798184
 H         -5.1447767109        1.9236207509        1.6960278784
 O         -4.2141358613       -1.0231882794        0.8718693189
 C         -3.1524059614       -1.8700579796        0.5967632192
 O         -3.4127993017       -3.0832387696        0.7294216993
 O         -0.6559426208        0.6259866998       -0.2164548405
 C         -0.7774986513       -2.2452392201       -0.0730948502
 C          0.4158114586       -1.8826936903        0.7767844500
 C          0.2418573583       -1.7310862301        2.1508406599
 C          1.3059201782       -1.3989128202        2.9657580101
 C          2.5667706583       -1.2038495505        2.4279387204
 C          2.7540134986       -1.3626579707        1.0609671504
 C          1.6842806987       -1.7124616906        0.2460824102
 H          1.8612178889       -1.8273991307       -0.8096727497
 N          4.0298110687       -1.2047182010        0.4900047507
 S          4.2694595492       -0.1863942212       -0.8163356094
 O          3.4606520894       -0.6112366111       -1.9287347395
 O          5.7009978792       -0.1999939114       -1.0261228691
 C          3.7744477694        1.4306708790       -0.2473974597
 C          4.7612260695        2.3249628189        0.1227385804
 C          4.3953430096        3.5701850690        0.6060804302
 C          3.0521938096        3.8970191692        0.7195159699
 C          2.0760408295        2.9857279094        0.3493740798
 C          2.4330063394        1.7382569393       -0.1396060900
 H          1.6766896693        1.0247587694       -0.4256962001
 H          1.0281539296        3.2255090096        0.4352738596
 H          2.7641871297        4.8656533493        1.0969544797
 H          5.1549884497        4.2794044889        0.8931814403
 H          5.7920905894        2.0287894887        0.0133334007
 H          4.7638677686       -1.0550177610        1.1680268708
 H          3.3985029683       -0.9366994606        3.0621522405
 H          1.1530244680       -1.2829531901        4.0281710401
 H         -0.7454602818       -1.8749046799        2.5693968797
 H         -1.1156997816       -3.2499018700        0.2209066698
 C         -0.4816624210       -2.2496434104       -1.5586998802
 C          0.1018565989       -3.4665500805       -2.2090067899
 C         -1.3258816510       -3.0906431503       -2.4661621802
 H         -1.5906526407       -2.6977564503       -3.4364796203
 H         -2.1032033912       -3.6854404301       -2.0082388503
 H          0.8227837591       -3.3291465507       -3.0011847698
 H          0.2946180986       -4.3244228305       -1.5824473098
 H         -0.1688299108       -1.2793185904       -1.9290308002
