  62
        -98.93749857
 C         -1.8220069395        0.3705048661        0.5939814330
 C         -2.8542345545        1.2326793830        0.1546624484
 C         -4.2193807820        0.6898781473        0.2100063942
 C         -4.4081024141       -0.5591503911        0.6737041663
 C         -5.7251242431       -1.2809215962        0.7166880643
 C         -6.0913104981       -1.7917111292       -0.6916404809
 C         -7.3358033278       -1.1401614512       -1.2952247109
 H         -7.3674154415       -1.4132840964       -2.3521527100
 H         -8.2234386002       -1.5624853160       -0.8195321693
 C         -7.4189554273        0.3843615039       -1.1713544276
 H         -7.7565606895        0.6532665888       -0.1693396931
 H         -8.1973532365        0.7170533342       -1.8613649167
 C         -6.1277875458        1.1541492966       -1.4774898730
 H         -5.4785271790        0.5712511065       -2.1311367162
 H         -6.3951443937        2.0618356405       -2.0223404972
 C         -5.3347706162        1.5960758033       -0.2331717172
 H         -4.8480291739        2.5513479170       -0.4508777084
 H         -6.0240697355        1.7612307648        0.5994427183
 H         -6.2527699056       -2.8701942668       -0.6567202557
 H         -5.2356261176       -1.6244802797       -1.3492208596
 H         -5.6148362540       -2.1171413480        1.4073643658
 H         -6.4973274609       -0.6150965558        1.0956029235
 O         -3.3903258181       -1.3549913769        1.0940310937
 C         -2.0736195351       -0.9176879933        1.0644359393
 O         -1.2460113364       -1.7525500709        1.4753390848
 H          1.9889985279       -0.4466620238        1.1506155555
 C          1.6269095613       -0.6275454456        0.1530375712
 C          0.4525003032       -0.0445403330       -0.2942256603
 C          0.0226092160       -0.3213982361       -1.5907520415
 C          0.7350212425       -1.1782139529       -2.4052437672
 C          1.9011346439       -1.7693271965       -1.9498296235
 C          2.3449736004       -1.4931586116       -0.6633480545
 N          3.5190074595       -2.0873348554       -0.1734868774
 S          4.6341326749       -1.1680117974        0.6646540205
 O          5.8581639476       -1.9361184859        0.5986491606
 O          4.1484655984       -0.8602131902        1.9850074981
 C          4.7929700479        0.3201932008       -0.3048765327
 C          5.4580042525        0.2410596370       -1.5132618074
 C          5.5376955309        1.3711465859       -2.3100684975
 C          4.9485130844        2.5542581083       -1.8899160436
 C          4.2879247044        2.6178343900       -0.6730937864
 C          4.2062957401        1.4905268168        0.1293393502
 H          3.7027099470        1.4995594550        1.0817092806
 H          3.8334380226        3.5395445696       -0.3461515265
 H          5.0064806366        3.4329815554       -2.5127597897
 H          6.0551457626        1.3268343604       -3.2548305775
 H          5.9131570015       -0.6931841542       -1.7995623241
 H          3.9768330273       -2.7066307721       -0.8260150438
 H          2.4551778178       -2.4482508286       -2.5800721022
 H          0.3829092942       -1.3889828504       -3.4037853338
 H         -0.8905457806        0.1376942803       -1.9445172833
 C         -0.3878787930        0.8693732020        0.5616195687
 H         -0.4346055133        1.8543450769        0.0739160833
 C          0.1359831320        1.0498684049        1.9701111976
 C          1.1581012150        2.1044713250        2.2666089628
 C         -0.2544719940        2.2771170438        2.7362047306
 H         -0.4668343545        2.1805488029        3.7904217070
 H         -0.8772897992        2.9997056391        2.2293468119
 H          1.9218399314        1.8888520756        2.9995388503
 H          1.4890657578        2.7201021378        1.4438802085
 H          0.1876630255        0.1174483986        2.5218163901
 O         -2.6420395725        2.4014132911       -0.2675742000
