  62
        -98.94491100
 C          1.9756875892        0.8443385388        0.0654118091
 C          2.2417380672       -0.1291374544        1.0555634498
 C          2.2869604439       -1.5215620618        0.5935060963
 C          2.0470343078       -1.7907757700       -0.7030638813
 C          2.0863760295       -3.1612513332       -1.3143803692
 C          3.4858063618       -3.4964062166       -1.8491135441
 C          4.6089043675       -3.2258234686       -0.8480719478
 H          5.5461109189       -3.5251115011       -1.3219128838
 H          4.6687299994       -2.1508109275       -0.6640278575
 C          4.4549203134       -3.9601809333        0.4910010338
 H          3.7471039524       -4.7826798930        0.3831528098
 H          5.4185752546       -4.3937576436        0.7660030724
 C          4.0195764052       -3.0690843858        1.6557549256
 H          4.6699232158       -2.1925366369        1.7097706953
 H          4.1506064537       -3.6324458339        2.5834033259
 C          2.5641740211       -2.5851658183        1.6187584041
 H          1.8933373864       -3.4359135704        1.4789643074
 H          2.3375307448       -2.1300733950        2.5877383045
 H          3.5003397830       -4.5480378477       -2.1408814510
 H          3.6678391701       -2.8923199403       -2.7408011581
 H          1.7843202695       -3.8924559969       -0.5667411292
 H          1.3715550220       -3.1849082784       -2.1388647796
 O          1.7873537189       -0.8300199590       -1.6256512147
 C          1.7262228891        0.5059507902       -1.2649209127
 O          1.4635566978        1.2818691435       -2.2043830549
 H         -0.4181351662        0.9642025490        0.9134638834
 C         -0.6147991799        1.9195594170        0.4474589014
 C          0.4420778302        2.7725928582        0.1552043173
 C          0.1595782080        4.0026064161       -0.4241271741
 C         -1.1454880794        4.3449535817       -0.7352167709
 C         -2.1873118796        3.4693821614       -0.4923709421
 C         -1.9163683799        2.2442740262        0.1076647563
 N         -2.9465251000        1.3285830653        0.3904140027
 S         -2.5872129001       -0.3179152908        0.2557873733
 O         -1.9861314529       -0.7623247051        1.4895963784
 O         -1.8420698073       -0.5789744473       -0.9550799125
 C         -4.2344488063       -0.9906024234        0.1271694639
 C         -4.9876575638       -1.1207437742        1.2789560168
 C         -6.2789099815       -1.6143884644        1.1824727306
 C         -6.7929271138       -1.9673766059       -0.0566483841
 C         -6.0246668898       -1.8329847801       -1.2032396408
 C         -4.7327530862       -1.3381819289       -1.1139712931
 H         -4.0945702621       -1.2223867184       -1.9755649949
 H         -6.4248546699       -2.1113955635       -2.1647758240
 H         -7.7975961653       -2.3527308359       -0.1290841564
 H         -6.8779901189       -1.7228624515        2.0720612684
 H         -4.5405547296       -0.8427885852        2.2190364130
 H         -3.8099801634        1.5560430286       -0.0846033050
 H         -3.1998462439        3.7271539312       -0.7632625164
 H         -1.3510206078        5.3006898841       -1.1930789061
 H          0.9620912161        4.6866273102       -0.6468375308
 C          1.8388275825        2.2989668409        0.4774316305
 H          1.9646816335        2.3081288596        1.5710281502
 C          2.9266323741        3.1457030587       -0.1488209724
 C          3.4299508287        4.3716651421        0.5514498751
 C          4.2898469540        3.1472888159        0.4734241570
 H          5.1525775439        3.1598869480       -0.1754968404
 H          4.4246332015        2.5565616940        1.3679046800
 H          2.9881511901        4.6189160638        1.5048501645
 H          3.7068067794        5.2282153243       -0.0443774892
 H          2.8694405499        3.1567261899       -1.2315599332
 O          2.4279429237        0.1549783391        2.2715713595
