  62
        -98.94655323
 C          1.0702973357        1.8190355831       -0.2055676163
 C          1.2130841144        0.6333095878       -0.9700635020
 C          2.5370109561       -0.0092168865       -0.9182165072
 C          3.5153396043        0.5373578675       -0.1760691287
 C          4.8958050117       -0.0291068529       -0.0136309837
 C          4.9824926529       -0.9641159976        1.1998102618
 C          3.8780692698       -2.0201255246        1.2497802535
 H          4.0696611723       -2.6516662098        2.1204458191
 H          2.9139346123       -1.5337192576        1.4186973885
 C          3.7792499056       -2.8974262993       -0.0055479296
 H          3.6554937719       -3.9369518383        0.3057058109
 H          4.7061077116       -2.8365256098       -0.5781636843
 C          2.5926521908       -2.5612317183       -0.9109225224
 H          1.6863154817       -2.5063332814       -0.3015176401
 H          2.4659553120       -3.3824428819       -1.6229240078
 C          2.7208403184       -1.2652202735       -1.7225424585
 H          3.6810040423       -1.2523152670       -2.2436500287
 H          1.9222386921       -1.2592378594       -2.4703383211
 H          5.9565516846       -1.4570694725        1.1858936131
 H          4.9196314624       -0.3609020443        2.1084912428
 H          5.1696878824       -0.5670490278       -0.9192595335
 H          5.5905203645        0.8006058575        0.1295279137
 O          3.3433711954        1.6738114918        0.5466591387
 C          2.1239485369        2.3286632095        0.5575156341
 O          2.1042562574        3.3548594177        1.2690525622
 O          0.3023776678        0.1220786787       -1.6724117078
 C         -0.2197449121        2.6170985671       -0.1354277465
 C         -1.1939456883        2.0614098151        0.8773960558
 C         -2.0258285578        2.9118818341        1.5985096477
 C         -2.9477817611        2.4009486912        2.4936684755
 C         -3.0659440402        1.0353973844        2.6831158310
 C         -2.2345934338        0.1774740779        1.9714433871
 C         -1.3078395604        0.6952599332        1.0773774742
 H         -0.6664065503        0.0170033558        0.5407639217
 N         -2.3186650332       -1.2065192423        2.1442695176
 S         -1.6515406663       -2.2971618727        1.0811610500
 O         -2.2644086311       -3.5575339676        1.4535776993
 O         -0.2125643191       -2.2641550005        1.1702598116
 C         -2.1980124153       -1.8582309070       -0.5595987665
 C         -3.3779866350       -1.1657510108       -0.7415276865
 C         -3.7880373328       -0.8706804440       -2.0315516196
 C         -3.0232695162       -1.2801433729       -3.1123166063
 C         -1.8488829152       -1.9867916707       -2.9128818916
 C         -1.4295906043       -2.2775039242       -1.6253372045
 H         -0.5111891802       -2.8071349990       -1.4305926773
 H         -1.2500255319       -2.3016813584       -3.7523104338
 H         -3.3417862979       -1.0434053989       -4.1155268348
 H         -4.7000847785       -0.3169479388       -2.1877671896
 H         -3.9583696916       -0.8502942648        0.1101854152
 H         -3.1120966252       -1.5603023668        2.6547615009
 H         -3.7854050215        0.6347690344        3.3803251639
 H         -3.5844048342        3.0716739482        3.0500898556
 H         -1.9376542950        3.9790588796        1.4630833571
 H          0.0694540948        3.6238900674        0.1974517019
 C         -0.9184920548        2.7368489959       -1.4789207904
 C         -1.7421658276        3.9495014204       -1.7848216265
 C         -0.4286451934        3.7415298923       -2.4760505099
 H         -0.4251856074        3.4692577909       -3.5205053634
 H          0.4051583197        4.3647915432       -2.1857633458
 H         -2.6487373406        3.8221193851       -2.3557482875
 H         -1.7977860709        4.7260059890       -1.0374066725
 H         -1.2598248906        1.7832868148       -1.8611724429
