  62
        -98.93828094
 C         -1.9034082359       -0.7749004338       -0.2256609406
 C         -2.5085430491       -0.1348819453        0.8801775092
 C         -3.5975246387        0.8093072841        0.5780309539
 C         -3.9289675103        1.0423348586       -0.7036873714
 C         -4.9652808427        1.9920614346       -1.2518194051
 C         -6.3120958672        2.0758055418       -0.5224912259
 C         -6.8030514972        0.7524762305        0.0822421391
 H         -7.8278870015        0.5705362535       -0.2464269576
 H         -6.1918699747       -0.0745269981       -0.2831430632
 C         -6.7942050895        0.7558563576        1.6125603231
 H         -7.1881187007        1.7122389995        1.9633824644
 H         -7.4689953204       -0.0259800634        1.9692781270
 C         -5.4324213202        0.5078569923        2.2596707166
 H         -5.1283796061       -0.5294427783        2.0953184138
 H         -5.5435367748        0.6419255074        3.3383550787
 C         -4.2903826352        1.4116990212        1.7667254153
 H         -4.6448597280        2.4186672880        1.5605952613
 H         -3.5379944314        1.4639445339        2.5586063510
 H         -6.2563127939        2.8276653260        0.2633984595
 H         -7.0408472844        2.4371456168       -1.2501430744
 H         -4.5198422678        2.9904894106       -1.2970962638
 H         -5.1279930308        1.6680235886       -2.2827548509
 O         -3.2929792404        0.4290278072       -1.7421028525
 C         -2.2760890919       -0.4909076493       -1.5386255218
 O         -1.7999893342       -0.9689783231       -2.5846315002
 H          0.3300694415        0.5908774525        0.4360223402
 C          0.9206795193        0.0080266414       -0.2600112348
 C          0.4922449135       -1.2696458580       -0.6022741596
 C          1.2657657958       -2.0130171019       -1.4828166366
 C          2.4166752009       -1.4728286236       -2.0319783717
 C          2.8268343779       -0.1935412347       -1.7077123448
 C          2.0724095886        0.5503916461       -0.8079984687
 N          2.4890628697        1.8440142605       -0.4550346080
 S          4.1147462084        2.1066778314       -0.1641851870
 O          4.1578264296        3.2301621901        0.7455189826
 O          4.8102942106        2.2847183571       -1.4145922752
 C          4.6971882539        0.6258872772        0.6435045444
 C          5.7090791564       -0.1182777875        0.0721663797
 C          6.1284376074       -1.2774780032        0.7052629393
 C          5.5286970179       -1.6721231644        1.8908303283
 C          4.5153166904       -0.9117120593        2.4543863785
 C          4.0936700241        0.2491380528        1.8270450287
 H          3.3110966090        0.8635861638        2.2429613983
 H          4.0495206068       -1.2195730317        3.3768173477
 H          5.8518788818       -2.5770911537        2.3804876185
 H          6.9174549793       -1.8694243173        0.2704030475
 H          6.1453929372        0.2237454989       -0.8521484161
 H          1.9085777624        2.2920095463        0.2378425410
 H          3.7079280348        0.2470100739       -2.1450976026
 H          3.0001930366       -2.0559087692       -2.7277651800
 H          0.9614168405       -3.0104634535       -1.7524331906
 C         -0.7860602320       -1.7727972030        0.0217800006
 H         -0.6483122094       -1.7887793470        1.1130595537
 C         -1.1918699744       -3.1564416308       -0.4379794797
 C         -0.5747638832       -4.3686263146        0.1911920960
 C         -2.0014494296       -4.0166549052        0.4839336473
 H         -2.7838263465       -4.6299659964        0.0625885471
 H         -2.2412587435       -3.6132916655        1.4570875223
 H         -0.3779299182       -5.2287336704       -0.4305701370
 H          0.1557240215       -4.2096704371        0.9696351724
 H         -1.4338240595       -3.1912730235       -1.4941371028
 O         -2.1439555954       -0.3304858702        2.0714334502
