  62
        -98.93066580
 C          2.1671580610        1.2124675108        0.2671936309
 C          2.8888305808        0.3342899108        1.1104072410
 C          3.4044453109       -0.9072178792        0.5049657311
 C          3.0994552811       -1.1799550692       -0.7761473890
 C          3.4955896013       -2.3719310392       -1.6102655690
 C          3.3939003411       -3.7491089792       -0.9364884990
 C          4.7539172910       -4.3816792793       -0.6355068188
 H          4.6286519609       -5.4650373492       -0.5762307689
 H          5.4240562211       -4.1764824692       -1.4728064786
 C          5.4123342807       -3.9209573393        0.6637728414
 H          4.8705934605       -4.3437912993        1.5125624312
 H          6.4237126207       -4.3333058294        0.6853768216
 C          5.4968770807       -2.4050615693        0.8527613615
 H          5.7618511710       -1.9174779393       -0.0846907385
 H          6.3051889906       -2.2012358094        1.5580952116
 C          4.2130510606       -1.7835802993        1.4226868612
 H          3.5637323305       -2.5683082693        1.8220252710
 H          4.4608773405       -1.1396233794        2.2723150913
 H          2.7985533809       -3.6735696992       -0.0276158892
 H          2.8562923812       -4.4116518491       -1.6169231592
 H          2.8371241814       -2.3360691291       -2.4814071591
 H          4.5117657813       -2.2139805792       -1.9805069587
 O          2.3514762113       -0.3316793191       -1.5379403791
 C          1.8643071713        0.8713145809       -1.0517294992
 O          1.1948407015        1.5154711710       -1.8805330293
 H         -0.2560644992        0.6990510909        1.3638057104
 C         -0.6758893091        1.5617921209        0.8581239703
 C          0.1586496510        2.6232483009        0.5286708305
 C         -0.3923516088        3.7142891009       -0.1285984195
 C         -1.7362371587        3.7269732210       -0.4622330998
 C         -2.5568859388        2.6590741610       -0.1504055300
 C         -2.0161844490        1.5667137710        0.5131957700
 N         -2.8472263291        0.4582436110        0.8173341898
 S         -3.2178311489       -0.5357743989       -0.5028459503
 O         -2.2424435989       -1.6051032690       -0.5874771202
 O         -3.3956788786        0.2797300611       -1.6756096403
 C         -4.7905273390       -1.2009040289        0.0105971793
 C         -4.8801303892       -2.5060882389        0.4520061392
 C         -6.1097476093       -2.9884594488        0.8735484590
 C         -7.2209484993       -2.1599794788        0.8505433688
 C         -7.1147242391       -0.8504394688        0.4052744888
 C         -5.8890359790       -0.3637132788       -0.0187202609
 H         -5.7603648389        0.6432230212       -0.3794012708
 H         -7.9813069091       -0.2093814087        0.3876673387
 H         -8.1760110193       -2.5374004588        1.1802226385
 H         -6.1948216794       -4.0064385589        1.2184042389
 H         -3.9905333592       -3.1152068789        0.4479663394
 H         -2.4195605493       -0.1365852990        1.5163210799
 H         -3.5960973788        2.6477944111       -0.4340391303
 H         -2.1464858586        4.5777881711       -0.9848156399
 H          0.2364942613        4.5428216609       -0.4103723594
 C          1.6199398509        2.4914820608        0.8777840008
 H          1.6955345307        2.3261005208        1.9660057008
 C          2.4365264911        3.7376223608        0.5736867111
 C          3.8983386611        3.6431325907        0.2567385814
 C          2.9271862814        4.0594003408       -0.8049287888
 H          2.9265256515        5.0927708308       -1.1198004188
 H          2.6913161115        3.3625892609       -1.5936965589
 H          4.3334138411        2.6562296407        0.1923470814
 H          4.5619945911        4.3876045607        0.6701380115
 H          2.1344245010        4.5783748208        1.1905500410
 O          3.0934579805        0.5744745607        2.3315210611
