  62
        -98.93647687
 C         -0.5922325550       -1.6206581815        0.1906747094
 C         -1.0352720097       -0.5776426172       -0.6583735757
 C         -2.2733508701        0.1011085901       -0.2405407232
 C         -2.8176837550       -0.1696677813        0.9575583254
 C         -4.0401520463        0.4736536467        1.5549625371
 C         -5.3744927031        0.1584270196        0.8499621962
 C         -5.7981405421        1.1977318639       -0.1953191512
 H         -6.8785912003        1.3408421776       -0.1280450252
 H         -5.3401254977        2.1551469471        0.0554808426
 C         -5.4875216231        0.8487946160       -1.6545768544
 H         -6.2248840007        0.1268163060       -2.0130265564
 H         -5.6055015907        1.7584394155       -2.2475227633
 C         -4.1027550315        0.2584770468       -1.9251166697
 H         -3.9409307579        0.2490097468       -3.0050118842
 H         -4.0797474495       -0.7851870996       -1.6019416546
 C         -2.9413892872        1.0030723000       -1.2365208219
 H         -2.1823847267        1.2801877200       -1.9705965554
 H         -3.3066217395        1.9078358317       -0.7555474538
 H         -5.3240106866       -0.8337193858        0.4019905271
 H         -6.1425525880        0.1240141859        1.6242588055
 H         -4.0873866720        0.1125836206        2.5839894256
 H         -3.8944054611        1.5550708520        1.5819249739
 O         -2.2733367730       -1.0780334653        1.8118634135
 C         -1.2025368934       -1.8630174276        1.4257169343
 O         -0.8788224213       -2.7307743296        2.2611273086
 H          1.7469116780       -0.2275173079       -0.9125807618
 C          2.3296597960       -0.7609444786       -0.1772402409
 C          1.8783037331       -1.9773558591        0.3165437862
 C          2.6503445041       -2.6518250211        1.2554024251
 C          3.8501827483       -2.1205901839        1.6925086122
 C          4.2909095324       -0.9006295834        1.2141805403
 C          3.5221150224       -0.2156648929        0.2777825144
 N          3.9451568840        1.0313104020       -0.1956336108
 S          2.9064912999        2.1573331298       -0.8412790971
 O          2.5456973288        1.7945417149       -2.1874353777
 O          3.6336804167        3.4054922659       -0.7142922260
 C          1.4553423590        2.2559485302        0.1965654234
 C          0.3385680473        2.8432938174       -0.3618651550
 C         -0.7839253603        3.0427234517        0.4240959330
 C         -0.7809788099        2.6320836801        1.7472639855
 C          0.3442099220        2.0363734852        2.2925108496
 C          1.4803339223        1.8595408317        1.5182539485
 H          2.3646280669        1.4089240718        1.9383233527
 H          0.3440271550        1.7106701206        3.3206149566
 H         -1.6565711953        2.7784951015        2.3598805492
 H         -1.6528902065        3.5191139367        0.0003836670
 H          0.3689980375        3.1259136539       -1.4019086721
 H          4.7181753087        1.4535880412        0.2959767572
 H          5.2197671966       -0.4749703878        1.5614987865
 H          4.4421298592       -2.6544802789        2.4200155682
 H          2.2942402248       -3.5902031273        1.6536175984
 C          0.5623688325       -2.5528576405       -0.1452349270
 H          0.3799366739       -3.4669120148        0.4371692242
 C          0.6295066591       -2.9301022137       -1.6118624493
 C          1.2954790394       -4.2146564168       -1.9994374265
 C         -0.1928218824       -4.0771300950       -2.1128843375
 H         -0.6342251757       -4.0028415739       -3.0953839053
 H         -0.8090113453       -4.6012571967       -1.3964291953
 H          1.8809673903       -4.2366048302       -2.9057379531
 H          1.6867982886       -4.8358561161       -1.2079066639
 H          0.7516267802       -2.0807526298       -2.2711025263
 O         -0.4587636858       -0.2176606577       -1.7183780676
