  62
        -98.93939890
 C         -2.6565376910       -1.2868983005       -0.1382341171
 C         -2.6353068360       -0.1542475857       -0.9874270129
 C         -3.9067513632        0.5732498897       -1.1132884998
 C         -4.9899093041        0.1313935732       -0.4488819556
 C         -6.3265612822        0.8135920329       -0.4377435304
 C         -6.4302002348        1.8084647771        0.7270026544
 C         -5.2357037786        2.7561555974        0.8393857965
 H         -5.4325830153        3.4293671292        1.6766764377
 H         -4.3437964646        2.1792663037        1.0957250545
 C         -4.9581230517        3.5809093894       -0.4252510350
 H         -5.8402721802        3.5836145826       -1.0665795721
 H         -4.7663703640        4.6154176967       -0.1327793730
 C         -3.7456719664        3.1148972663       -1.2334269665
 H         -2.8786659720        3.0211109646       -0.5740518166
 H         -3.5126787066        3.8866686211       -1.9719311564
 C         -3.9188658907        1.7926625174       -1.9913364519
 H         -4.8302830665        1.8282317655       -2.5913678903
 H         -3.0649762250        1.6834329845       -2.6662272521
 H         -7.3467220193        2.3886530778        0.6052715440
 H         -6.5067921315        1.2435674070        1.6589906253
 H         -6.4735483174        1.3296848602       -1.3843793708
 H         -7.1007347031        0.0529357179       -0.3241135425
 O         -4.9756223264       -0.9732792362        0.3406921928
 C         -3.8098745848       -1.6960632495        0.5313277906
 O         -3.9271011317       -2.6677626900        1.3056541045
 H          1.0995964792       -1.2537747646       -0.7952851809
 C          0.8413688381       -0.8483943056        0.1703268635
 C         -0.3686995578       -1.1788687368        0.7563891755
 C         -0.6746250574       -0.6390909980        2.0035928178
 C          0.2037151127        0.2176027636        2.6375526054
 C          1.4032398944        0.5632242993        2.0389896424
 C          1.7194427798        0.0294278448        0.7978251509
 N          2.9192882072        0.3971762604        0.1638659926
 S          4.3216638620        0.4964828126        1.0965063471
 O          4.4781948312       -0.7026170537        1.8902561800
 O          4.3011357518        1.7367556311        1.8308121783
 C          5.5640224469        0.5702661339       -0.1782019083
 C          5.7969110215        1.7803171363       -0.8039849995
 C          6.7430495210        1.8399116709       -1.8145689597
 C          7.4361472820        0.6954723414       -2.1806287304
 C          7.1921738249       -0.5113392641       -1.5425290096
 C          6.2459618000       -0.5784018381       -0.5317973306
 H          6.0294717705       -1.4928213657       -0.0030265800
 H          7.7345023092       -1.3984095522       -1.8278039576
 H          8.1730666284        0.7451977981       -2.9666503599
 H          6.9370835232        2.7765286110       -2.3119306254
 H          5.2407063125        2.6446561433       -0.4807629196
 H          3.0799861691       -0.1309736175       -0.6828660650
 H          2.0956021575        1.2346493216        2.5204596523
 H         -0.0465889046        0.6260858842        3.6055608840
 H         -1.6167226946       -0.9015726515        2.4669795040
 C         -1.3851105427       -2.0836593700        0.1019531708
 H         -1.6514457982       -2.8702110335        0.8221442819
 C         -0.9077891522       -2.7357222713       -1.1777096428
 C         -0.0017481228       -3.9276120214       -1.1141029324
 C         -1.4297493883       -4.0927997791       -1.5376756436
 H         -1.6395779351       -4.3054125570       -2.5751860345
 H         -2.1196372048       -4.5588138264       -0.8491498851
 H          0.2823882537       -4.2863739829       -0.1361981734
 H          0.7686136044       -4.0325939405       -1.8630516511
 H         -0.7681653303       -2.0265595199       -1.9849367442
 O         -1.6131425374        0.2324215480       -1.6113508926
