  62
        -98.94307875
 C         -2.2965728695       -0.6950986497        0.0909043197
 C         -3.2545943296       -0.2921844292        1.0563748694
 C         -4.1004505894        0.8516930808        0.6938945488
 C         -3.9083569292        1.4599766203       -0.4907463314
 C         -4.7204651889        2.6118659901       -1.0061522420
 C         -5.9181161089        2.1226870599       -1.8323217020
 C         -6.7405017491        1.0346685503       -1.1419325216
 H         -7.5754673390        0.7897780302       -1.8019863617
 H         -6.1307666992        0.1331874203       -1.0474483012
 C         -7.2795585893        1.4279697210        0.2405217981
 H         -7.2513738191        2.5121865910        0.3546382177
 H         -8.3257208393        1.1221888811        0.3083437981
 C         -6.5479348895        0.7758795914        1.4152475885
 H         -6.4920252896       -0.3041815587        1.2577482090
 H         -7.1391053396        0.9442366818        2.3193402983
 C         -5.1320364795        1.2968778713        1.6921029185
 H         -5.1493013994        2.3860254814        1.7678859880
 H         -4.8108810697        0.8905478617        2.6555995387
 H         -6.5573371787        2.9791774499       -2.0541210124
 H         -5.5458620188        1.7222618695       -2.7781384218
 H         -5.0657743790        3.2106168505       -0.1655736923
 H         -4.0797669688        3.2268911498       -1.6402964022
 O         -2.9690700091        1.0587262198       -1.3828257511
 C         -2.1425952592       -0.0255385202       -1.1231943305
 O         -1.3410807591       -0.2755779707       -2.0438430703
 H          0.7300241106       -1.5123423506       -1.2629185795
 C          0.9532671105       -1.1944068902       -0.2567485596
 C         -0.0102998197       -1.3165283597        0.7323508503
 C          0.2931794302       -0.8743031392        2.0170524302
 C          1.5282723902       -0.3218217892        2.2988784901
 C          2.4819407704       -0.1852025098        1.3049105902
 C          2.1880655305       -0.6194002303        0.0193919503
 N          3.1243638107       -0.4455602008       -1.0081713696
 S          4.7548599106       -0.6843038209       -0.7391088693
 O          5.3233448708       -0.9098945115       -2.0499547691
 O          4.9894448004       -1.7157091205        0.2450460912
 C          5.3224161407        0.8871757393       -0.1222486699
 C          6.1011509006        0.9391928497        1.0171811802
 C          6.5418769207        2.1720344798        1.4728239998
 C          6.1991437009        3.3250151796        0.7836154792
 C          5.4185594210        3.2556383392       -0.3607602308
 C          4.9757436110        2.0262842790       -0.8219274504
 H          4.3667496311        1.9320025187       -1.7057789604
 H          5.1525050812        4.1542721990       -0.8938598012
 H          6.5412374410        4.2837073797        1.1402573689
 H          7.1485294705        2.2281947301        2.3623450898
 H          6.3369892604        0.0175699998        1.5251335606
 H          2.8240743908       -0.7823092712       -1.9101709795
 H          3.4451864804        0.2486028502        1.5175689301
 H          1.7512277401        0.0124407011        3.3007333400
 H         -0.4581272099       -0.9600362488        2.7894197201
 C         -1.3876516797       -1.8619241197        0.4437541103
 H         -1.7915882799       -2.2688601492        1.3804597404
 C         -1.4026045797       -2.9548490401       -0.6042225892
 C         -0.8249027599       -4.2956580900       -0.2657722786
 C         -2.3067614998       -4.1350285899       -0.4196703189
 H         -2.7843661298       -4.5587410902       -1.2904705187
 H         -2.9181790300       -4.1632705395        0.4703520411
 H         -0.4288728100       -4.4294811497        0.7296784615
 H         -0.2821426498       -4.8323291204       -1.0290063983
 H         -1.2725429995       -2.5889065405       -1.6149619693
 O         -3.3941358298       -0.8641508187        2.1702339796
