  62
        -98.94293393
 C         -1.9748187563       -0.5349967151        0.0375893965
 C         -2.5799055161        0.7339605133        0.2361527086
 C         -3.9406218863        0.9017147424       -0.2885239794
 C         -4.5254321172       -0.1252265534       -0.9312262440
 C         -5.9253875363       -0.1164293616       -1.4714746537
 C         -6.9258185117       -0.6354726834       -0.4292214165
 C         -6.7773365525        0.0146409986        0.9463467422
 H         -7.5527547603       -0.4055945274        1.5904719904
 H         -5.8140062691       -0.2719667154        1.3743433213
 C         -6.8921996810        1.5454360985        0.9404988901
 H         -7.3687112813        1.8781705212        0.0176691261
 H         -7.5370603640        1.8516947569        1.7668971106
 C         -5.5630172772        2.2821759981        1.1171553382
 H         -5.7811693532        3.3349526471        1.3160783676
 H         -5.0378355293        1.8874157283        1.9907048357
 C         -4.6074643894        2.2325083953       -0.0818881703
 H         -5.1353901562        2.5431505581       -0.9859859494
 H         -3.8000720894        2.9464448184        0.1064659141
 H         -7.9360684286       -0.4664455533       -0.8062726706
 H         -6.7804461633       -1.7121888586       -0.3161411156
 H         -6.1873766954        0.8969627056       -1.7694018193
 H         -5.9593457654       -0.7641554822       -2.3490329999
 O         -3.9119763876       -1.3182681859       -1.1196141345
 C         -2.6313391427       -1.5619734148       -0.6418981292
 O         -2.2221495859       -2.7112193819       -0.8946750510
 O         -2.0067850069        1.6841927086        0.8353389421
 C         -0.5742065662       -0.7148705589        0.5998680121
 C          0.4749780539       -0.5301759155       -0.4707304274
 C          0.5739106046       -1.3999055980       -1.5528474935
 C          1.5384083704       -1.2025945345       -2.5232662150
 C          2.4344782089       -0.1519654738       -2.4250552448
 C          2.3466011786        0.7203242567       -1.3477779559
 C          1.3650953660        0.5306940136       -0.3836185945
 H          1.3012969635        1.2268292764        0.4393578766
 N          3.2469337828        1.7954123859       -1.2138784941
 S          4.1512484027        1.8973359937        0.1920939569
 O          3.2904565672        2.1629717852        1.3150778062
 O          5.1690196753        2.8847042152       -0.0891726045
 C          4.8961200897        0.2838153567        0.3476055609
 C          4.1758903702       -0.7352735336        0.9383203907
 C          4.7269893348       -2.0060692645        0.9811361545
 C          5.9817940532       -2.2346708424        0.4377945047
 C          6.6945441219       -1.1995380166       -0.1483798035
 C          6.1459942274        0.0716092474       -0.2008881890
 H          6.6656626587        0.9062363205       -0.6431061155
 H          7.6717974923       -1.3797523921       -0.5664490551
 H          6.4061442951       -3.2256142063        0.4732352983
 H          4.1704259638       -2.8099044312        1.4354497342
 H          3.2040606706       -0.5224445350        1.3520460124
 H          3.8516647771        1.9193325272       -2.0140842932
 H          3.1909785438       -0.0026571802       -3.1807165496
 H          1.5988722140       -1.8795035770       -3.3618316930
 H         -0.1247368007       -2.2180321332       -1.6339657321
 H         -0.4524335616        0.1029258942        1.3238457802
 C         -0.3798169058       -2.0296572922        1.3293444744
 C          0.6490901780       -2.1138956310        2.4149808260
 C         -0.8093224793       -2.1410334239        2.7599363994
 H         -1.2468215870       -3.0691673177        3.0954164359
 H         -1.2395386706       -1.2641381279        3.2223322112
 H          1.2169948453       -3.0254828476        2.5180278577
 H          1.2027123512       -1.2174125917        2.6535338937
 H         -0.5247157218       -2.8984642671        0.7012507745
