  62
        -98.93811923
 C         -2.5464578586       -1.1742096279        0.2228414125
 C         -2.7268650973       -0.4206244276       -0.9600540877
 C         -3.6186082279        0.7497283572       -0.8575633653
 C         -4.1897978516        1.0359386251        0.3252501816
 C         -5.0781634143        2.2038689901        0.6545879991
 C         -4.2533847487        3.3728065004        1.2197828827
 C         -3.6751076910        4.3212118401        0.1700226355
 H         -4.4856640530        4.9077614041       -0.2673604184
 H         -3.0121369549        5.0161955152        0.6906907446
 C         -2.8929680839        3.6491586509       -0.9617261764
 H         -2.2415014042        4.4016009786       -1.4103279921
 H         -2.2486556796        2.8683601751       -0.5526638767
 C         -3.7982892791        3.0605050410       -2.0540392381
 H         -3.4652647149        3.4184390972       -3.0302927079
 H         -4.8120051051        3.4361197483       -1.9163115132
 C         -3.8210426363        1.5267107279       -2.1297660981
 H         -4.7628838456        1.2061524949       -2.5872063735
 H         -3.0194753738        1.1829413499       -2.7912296039
 H         -4.8870586700        3.9568896054        1.8902879252
 H         -3.4440104541        2.9514330257        1.8221947816
 H         -5.6501616614        2.5106423753       -0.2158815798
 H         -5.7690759805        1.8608481717        1.4275263869
 O         -3.9741546667        0.2904202827        1.4456004492
 C         -3.1510564521       -0.8204256673        1.4273401660
 O         -3.0328009882       -1.3954550536        2.5296775259
 H         -0.2588848804       -0.2861434921        1.0493713564
 C          0.3233293650       -0.8774997139        0.3515027037
 C         -0.2454891640       -2.0168807152       -0.2048147868
 C          0.5202055163       -2.7751071589       -1.0805579614
 C          1.8098830939       -2.3871386913       -1.4012454128
 C          2.3638352521       -1.2427365877       -0.8587090305
 C          1.6117784000       -0.4828575970        0.0278357469
 N          2.1681993773        0.6862643114        0.5824838686
 S          3.6123717117        0.5172298052        1.4283299288
 O          3.7262502372       -0.7978041080        2.0164197306
 O          3.6487461295        1.6364399333        2.3445520056
 C          4.8681019554        0.7414361512        0.1866804076
 C          5.8092972377       -0.2468112742       -0.0254911991
 C          6.7843328261       -0.0467992381       -0.9904451769
 C          6.8005262512        1.1312197440       -1.7214573213
 C          5.8490716885        2.1147055443       -1.4944305936
 C          4.8725007038        1.9218959010       -0.5304029500
 H          4.1178587005        2.6614370212       -0.3203305352
 H          5.8648739030        3.0293995897       -2.0648780371
 H          7.5593882986        1.2842798774       -2.4724678757
 H          7.5249600753       -0.8098482108       -1.1681642475
 H          5.7528870972       -1.1483498974        0.5633106935
 H          1.5100254926        1.2197568315        1.1324006152
 H          3.3641899498       -0.9327447743       -1.1130787383
 H          2.3905422063       -2.9836291569       -2.0881012511
 H          0.1058464327       -3.6698057904       -1.5150842581
 C         -1.6474765560       -2.3962164338        0.2095878253
 H         -1.6041753665       -2.7528080120        1.2500340244
 C         -2.2591969792       -3.4822107690       -0.6515703196
 C         -2.0217256301       -4.9266623184       -0.3319411194
 C         -3.3664089285       -4.3149604631       -0.0813689771
 H         -4.1888963152       -4.5903125665       -0.7241735644
 H         -3.6585838804       -4.1169921291        0.9401041496
 H         -1.9241533986       -5.6264575986       -1.1481871370
 H         -1.4031199146       -5.1551998402        0.5229469287
 H         -2.3368787830       -3.1910815879       -1.6926656157
 O         -2.1661079182       -0.7039274075       -2.0502574453
