  62
        -98.94226728
 C         -2.4992405494       -0.0268543278        0.1388684082
 C         -1.5431615489        0.3318842914       -0.8411797616
 C         -1.1596175178        1.7495590311       -0.8904427716
 C         -1.6962109973        2.6073560416       -0.0053806117
 C         -1.2878556562        4.0416682012        0.1704826984
 C          0.0367804137        4.0975910202        0.9603892587
 C          1.2200552743        4.6601950193        0.1722928589
 H          1.1138030552        5.7448211694        0.0954150489
 H          2.1205068440        4.4546849586        0.7556429791
 C          1.4045889442        4.1018489691       -1.2421898711
 H          2.4141305044        4.3700062483       -1.5606652509
 H          0.7173040347        4.6031673596       -1.9258467812
 C          1.2284613030        2.5849418092       -1.3899625711
 H          1.9796634529        2.2198972887       -2.0941049809
 H          1.4127742924        2.0815349891       -0.4397406010
 C         -0.1496659172        2.1535168803       -1.9282447214
 H         -0.5652961365        2.9472523207       -2.5551768514
 H         -0.0168818178        1.2684097702       -2.5566307513
 H          0.2780485528        3.0875704700        1.3026298987
 H         -0.0985891060        4.7062850403        1.8563924286
 H         -1.1773022256        4.5198117312       -0.8002878316
 H         -2.0817224359        4.5455989719        0.7225314782
 O         -2.6218937077        2.2328699023        0.9155764381
 C         -3.0176271088        0.9107178426        1.0330846681
 O         -3.8254580492        0.6979927933        1.9611577379
 H         -0.7146133704       -0.9422218692        1.8146568686
 C         -0.5682488810       -1.8350284593        1.2230997386
 C         -1.5960604912       -2.2958198785        0.4081198984
 C         -1.3835787420       -3.4484000587       -0.3358911415
 C         -0.1639946125       -4.1025644796       -0.2799545313
 C          0.8735184477       -3.6079064805        0.4886971489
 C          0.6688722985       -2.4548824503        1.2384999189
 N          1.6992701788       -1.8804438411        2.0134813591
 S          2.2281232101       -0.3513419415        1.5695596392
 O          3.2632492702       -0.0201267223        2.5261682394
 O          1.1134537308        0.5581742094        1.5036590189
 C          2.9744637402       -0.5844036921       -0.0348964907
 C          4.3536693802       -0.6129499032       -0.1192038804
 C          4.9478672003       -0.8524079337       -1.3472808903
 C          4.1556064803       -1.0690652931       -2.4648757005
 C          2.7738183803       -1.0423392120       -2.3612504407
 C          2.1704394603       -0.7988408815       -1.1363011309
 H          1.0960486403       -0.7666079506       -1.0432487211
 H          2.1497000204       -1.2103209515       -3.2244100409
 H          4.6164102304       -1.2590167834       -3.4215004804
 H          6.0227612803       -0.8713700945       -1.4283564601
 H          4.9270205302       -0.4384891336        0.7769790197
 H          2.5049135183       -2.4813255517        2.1252828892
 H          1.8345698473       -4.0998524512        0.5047736891
 H         -0.0122251231       -4.9971465298       -0.8644184813
 H         -2.1626618421       -3.8227684781       -0.9793604217
 C         -2.8683900006       -1.4821659675        0.3827041581
 H         -3.2964267408       -1.4968625572        1.3994222780
 C         -3.9367907408       -2.0392210167       -0.5451088121
 C         -4.9234846400       -1.1305772559       -1.2144652723
 C         -3.8892909704       -1.8440041667       -2.0295793521
 H         -4.2119958609       -2.6575979065       -2.6627131221
 H         -3.0652822898       -1.2755587474       -2.4291946119
 H         -4.8095202392       -0.0676170760       -1.0562583423
 H         -5.9516142002       -1.4532320151       -1.2837808025
 H         -4.3278645116       -2.9874733964       -0.1890897421
 O         -1.0164921294       -0.4905138690       -1.6362888815
