  62
        -98.93675897
 C         -1.4460039831       -1.5652848749        0.8949218132
 C         -2.4346893865       -1.1052266858       -0.0080250114
 C         -3.0635001241        0.1925618877        0.3180219486
 C         -2.6583582969        0.8829664481        1.3954671816
 C         -3.1778401858        2.1874846942        1.9491610012
 C         -3.5575779808        3.2943266435        0.9602028288
 C         -2.6510507944        3.4003853558       -0.2744668879
 H         -2.3183423702        4.4345394835       -0.3856928176
 H         -1.7574801209        2.7847919591       -0.1510760368
 C         -3.3541485669        2.9893001538       -1.5694886665
 H         -4.3632995228        3.4087723316       -1.5805037894
 H         -2.8066919117        3.4176367702       -2.4127919111
 C         -3.4281549912        1.4819775306       -1.8008284683
 H         -2.4154099917        1.0950983025       -1.9471556126
 H         -3.9797250812        1.3054298141       -2.7279939501
 C         -4.0876290205        0.6747624318       -0.6689924300
 H         -4.5289656825       -0.2242840380       -1.1082366144
 H         -4.8762259283        1.2468192059       -0.1855483933
 H         -3.5260566886        4.2334943666        1.5158947717
 H         -4.5880165796        3.1572598844        0.6348294244
 H         -4.0434326569        1.9624066143        2.5804888637
 H         -2.3848176993        2.5484164188        2.6091430505
 O         -1.6758995924        0.4182210223        2.2198912762
 C         -1.0407963793       -0.7842082479        1.9783514530
 O         -0.1384811438       -1.0589849206        2.7973205975
 O         -2.8107785653       -1.7311691783       -1.0313845095
 C         -0.6327097610       -2.8390032902        0.7099304185
 C          0.7219845915       -2.4755909868        0.1530421316
 C          1.8872616783       -3.0842919223        0.6037308714
 C          3.1204102363       -2.6996965733        0.1065192281
 C          3.2182775712       -1.6727080985       -0.8155119201
 C          2.0589633582       -1.0513299996       -1.2632573109
 C          0.8227543049       -1.4787797546       -0.8063155176
 H         -0.0671084704       -0.9902930125       -1.1726266055
 N          2.0972601592        0.0538064653       -2.1417502110
 S          1.5627921324        1.4965646125       -1.4655781382
 O          0.1837586960        1.3800848457       -1.0764171533
 O          1.8754071141        2.5125392768       -2.4468774680
 C          2.6069234257        1.6987730929       -0.0339284268
 C          2.2565982513        1.0772844169        1.1476367694
 C          3.1207203100        1.1590682834        2.2285452288
 C          4.3137218645        1.8549663949        2.1099163571
 C          4.6501955464        2.4770627219        0.9165569770
 C          3.7934228361        2.3942190811       -0.1687787350
 H          4.0111444464        2.8643124090       -1.1143771564
 H          5.5770237391        3.0206103126        0.8283765936
 H          4.9828262510        1.9127414871        2.9538618789
 H          2.8469737783        0.6698655979        3.1499116686
 H          1.3224199520        0.5416300064        1.2178549629
 H          3.0040460421        0.2050934984       -2.5634446726
 H          4.1813266640       -1.3454593623       -1.1774429230
 H          4.0168350734       -3.1842513628        0.4615296655
 H          1.8246174688       -3.8479828800        1.3647386904
 H         -0.4686168622       -3.2418295814        1.7235496297
 C         -1.3327236429       -3.9180743437       -0.0999808249
 C         -0.9970944259       -4.2044043389       -1.5294462826
 C         -0.6096128589       -5.1814953582       -0.4627066115
 H         -1.1467104692       -6.1155614433       -0.3985847009
 H          0.4369518341       -5.2533569824       -0.2096695116
 H         -1.8106354006       -4.4466595714       -2.1956007286
 H         -0.2197252554       -3.6165472624       -1.9935174876
 H         -2.3763335333       -4.0175895335        0.1767744548
