  62
        -98.94400827
 C         -2.1129140758       -0.8828570826        0.0383205889
 C         -2.5134622126        0.4619914720       -0.1494741610
 C         -3.8273779486        0.8161286820        0.4034637663
 C         -4.5512051494       -0.1087696901        1.0595048582
 C         -5.8961912025        0.1074106857        1.6985955806
 C         -7.0770590570       -0.0103964483        0.7252577266
 C         -7.2328250794        1.1545211724       -0.2530744474
 H         -7.2329352629        2.0943973673        0.2999020276
 H         -8.2143785594        1.0514998822       -0.7200454629
 C         -6.1652456763        1.2031643020       -1.3550300755
 H         -6.6456214657        1.3826118252       -2.3195549795
 H         -5.6659539448        0.2338066512       -1.4215436537
 C         -5.1082503294        2.2913703410       -1.1663655906
 H         -5.5788566626        3.2750342131       -1.2305536848
 H         -4.3841629430        2.2112869665       -1.9811446891
 C         -4.3406423292        2.2031117653        0.1591703390
 H         -4.9761022106        2.5253132489        0.9839108806
 H         -3.4769165352        2.8703576243        0.1014157922
 H         -7.9876636180       -0.0767861756        1.3250757175
 H         -6.9781562146       -0.9442739137        0.1671636736
 H         -5.9188091043        1.0837222556        2.1836598449
 H         -6.0034586926       -0.6638207061        2.4644242694
 O         -4.1174881858       -1.3846678256        1.2404640940
 C         -2.9004520477       -1.8044179450        0.7294431212
 O         -2.6321826578       -3.0011956417        0.9581421656
 O         -1.8177460448        1.3243972580       -0.7461787720
 C         -0.7756841917       -1.3665180330       -0.4973371223
 C          0.3310830841       -0.5894490540        0.1726934985
 C          0.4849952486       -0.7103681151        1.5516956741
 C          1.4651604340       -0.0021877542        2.2195180457
 C          2.3138835612        0.8447068945        1.5274787024
 C          2.1725778191        0.9675433862        0.1523689162
 C          1.1946516652        0.2433568042       -0.5194075572
 H          1.0955970696        0.3570863542       -1.5870894065
 N          3.0321049033        1.8211911282       -0.5572245201
 S          4.6659050511        1.7773277477       -0.2084990866
 O          4.9325791543        2.5334153372        0.9897050235
 O          5.3215428359        2.2445776848       -1.4095649211
 C          5.0275061563        0.0523977384        0.0709297926
 C          4.8394909087       -0.8278580856       -0.9764944659
 C          5.0768321056       -2.1766101909       -0.7693902517
 C          5.4929702857       -2.6209205747        0.4765495929
 C          5.6810262581       -1.7243762733        1.5166106680
 C          5.4447350588       -0.3737693961        1.3150544174
 H          5.5781506306        0.3565250861        2.0964000296
 H          6.0066936005       -2.0724394526        2.4836019425
 H          5.6728187358       -3.6723797647        0.6361623639
 H          4.9336700686       -2.8761281410       -1.5773049417
 H          4.5219330095       -0.4491054417       -1.9345767308
 H          2.8603703132        1.8495530645       -1.5509947980
 H          3.0707687926        1.4213193357        2.0338545510
 H          1.5678725788       -0.1040211669        3.2892313321
 H         -0.1851070238       -1.3647413111        2.0929024048
 H         -0.6888658924       -2.4169946292       -0.1866867780
 C         -0.7502796879       -1.3016623317       -2.0095843724
 C          0.2166225260       -2.1528088504       -2.7753346235
 C         -1.2466155460       -2.4762028115       -2.7954799094
 H         -1.8050330047       -2.2910316360       -3.7009582579
 H         -1.5905147550       -3.3367783602       -2.2402753319
 H          0.6634212104       -1.7504793419       -3.6720291515
 H          0.8683104690       -2.7988061780       -2.2071598846
 H         -0.9820312632       -0.3149613888       -2.3934618006
