  62
        -98.93354351
 C         -2.3360682401       -0.4810454104       -0.3790321092
 C         -3.5558347401       -0.9579014798        0.1566886212
 C         -4.5515758100        0.0513222306        0.5642852104
 C         -4.2355049999        1.3541799805        0.4437500995
 C         -5.0943451597        2.5506406908        0.7542566186
 C         -6.1586923297        2.8081737701       -0.3258900916
 C         -6.8732879598        1.5597945399       -0.8375838307
 H         -7.5043955898        1.8596485993       -1.6784106509
 H         -6.1335599899        0.8560166895       -1.2237360301
 C         -7.7621332299        0.8532430007        0.1831131799
 H         -8.5369672098        1.5446771711        0.5220206394
 H         -8.2574697300        0.0273909304       -0.3339602095
 C         -7.0496702200        0.2858688415        1.4121199403
 H         -7.7592144001       -0.3701177580        1.9251184208
 H         -6.7960112999        1.0747168320        2.1150331397
 C         -5.8203097101       -0.5636887689        1.1042122009
 H         -6.0978181502       -1.3499061493        0.3928552615
 H         -5.5262673302       -1.0940090982        2.0183272413
 H         -5.6646844196        3.2796938495       -1.1788733019
 H         -6.8910605196        3.5127092005        0.0715291579
 H         -5.5516149197        2.4368443116        1.7325882987
 H         -4.4267347396        3.4139114107        0.7974490680
 O         -3.0350126198        1.7683238800       -0.0508083008
 C         -2.0622511999        0.8825402495       -0.4764448202
 O         -1.0319774298        1.4304376291       -0.9131878706
 O         -3.8159735103       -2.1853246797        0.2816423621
 C         -1.2997101302       -1.5008542908       -0.8203519784
 C         -0.1339855602       -1.4540776303        0.1363460015
 C         -0.2150557203       -2.1497815494        1.3392997121
 C          0.8210269797       -2.1031396688        2.2531543220
 C          1.9547069498       -1.3522406392        1.9947793015
 C          2.0411392899       -0.6469585100        0.8021300609
 C          1.0075090299       -0.7120098806       -0.1238960490
 H          1.0816026100       -0.1500994213       -1.0418068694
 N          3.1732697700        0.1550751596        0.5414321604
 S          4.6799940799       -0.6066300205        0.5909803809
 O          4.7152970798       -1.7104934012       -0.3450164883
 O          4.9853866399       -0.9348569296        1.9601281911
 C          5.7359490401        0.7140111489        0.0306756299
 C          6.1245465502        1.6807015995        0.9380844392
 C          6.9187372103        2.7285486291        0.5006564085
 C          7.3076186803        2.7925538581       -0.8292200716
 C          6.9110704902        1.8136644375       -1.7277417309
 C          6.1156312701        0.7635336779       -1.2968309601
 H          5.7911507000       -0.0235956625       -1.9586018895
 H          7.2171435702        1.8646909267       -2.7602888009
 H          7.9256221904        3.6093450778       -1.1672715222
 H          7.2310716504        3.4906545896        1.1962635379
 H          5.8047524902        1.5860119603        1.9625247193
 H          3.0745930201        0.6409669290       -0.3409321500
 H          2.7722610798       -1.3119202387        2.6957857814
 H          0.7463554897       -2.6538973981        3.1789549524
 H         -1.1062909204       -2.7246663691        1.5501860825
 H         -1.7893920703       -2.4776204707       -0.7069140277
 C         -0.9063229202       -1.3199099419       -2.2715353286
 C         -0.1648299503       -2.4183187525       -2.9711531377
 C         -1.5933846703       -2.1350040926       -3.3240241180
 H         -1.8078765002       -1.6715135533       -4.2753096783
 H         -2.3486683904       -2.8357902523       -2.9998225574
 H          0.6040946997       -2.1532025832       -3.6806963379
 H          0.0522592296       -3.3109824822       -2.4038689071
 H         -0.6570325401       -0.2969941322       -2.5257880393
