  62
        -98.93315839
 C         -2.4166746290       -1.0170539012       -0.0280575223
 C         -2.2547097963        0.3387654916       -0.3951926934
 C         -3.2248144366        1.2938475686        0.1755557418
 C         -4.1717580009        0.8485412813        1.0183673300
 C         -5.2724237960        1.6399793234        1.6687688903
 C         -6.5576833395        1.5781735639        0.8259243267
 C         -6.6639206676        2.6421855462       -0.2658598150
 H         -7.5456950357        2.4053585463       -0.8656957540
 H         -6.8353279204        3.6159092055        0.1978170907
 C         -5.4516103414        2.7493892503       -1.1944245800
 H         -5.1090000499        1.7499769700       -1.4687541368
 H         -5.7759265520        3.2427022237       -2.1128106414
 C         -4.2924642844        3.5500667728       -0.5826094188
 H         -4.6487048011        4.0698920958        0.3064655271
 H         -3.9761515996        4.3228620435       -1.2863590125
 C         -3.0414040663        2.7299820318       -0.2354716395
 H         -2.3831561509        2.6859550876       -1.1087745287
 H         -2.4813997066        3.2478858361        0.5503819186
 H         -6.6163378022        0.5828770224        0.3778151842
 H         -7.4175864154        1.6878681786        1.4898060013
 H         -5.4664262340        1.1655986537        2.6330278819
 H         -4.9620892422        2.6663722987        1.8396843471
 O         -4.2820362110       -0.4638608142        1.3625250689
 C         -3.4266406180       -1.4182903107        0.8529330925
 O         -3.6610452694       -2.5780458341        1.2473768645
 H          0.5114391761       -0.3331939027       -0.6759823802
 C          0.7361271800       -1.1345326246        0.0123731666
 C         -0.2022919333       -2.1367209940        0.2130749788
 C          0.0891784036       -3.1456418826        1.1236754813
 C          1.2888534154       -3.1467217801        1.8136260285
 C          2.2189805688       -2.1417698047        1.6161851462
 C          1.9354777628       -1.1272252609        0.7110183071
 N          2.8541109644       -0.0696931188        0.5221408956
 S          4.4018976159       -0.4758224351       -0.0190001089
 O          4.3402353586       -1.0211510219       -1.3589757287
 O          5.0343980950       -1.3085866195        0.9714488299
 C          5.1717463540        1.1303525283       -0.0437581252
 C          5.6244241205        1.6626779749        1.1481286565
 C          6.2015492755        2.9223581023        1.1422735611
 C          6.3144211772        3.6251550050       -0.0482932297
 C          5.8558880792        3.0772969371       -1.2366479859
 C          5.2767735253        1.8178735694       -1.2372752924
 H          4.9140960824        1.3501603186       -2.1387397388
 H          5.9465977568        3.6250638045       -2.1609180127
 H          6.7644871961        4.6054021052       -0.0505514555
 H          6.5612601900        3.3515106267        2.0635496541
 H          5.5233072267        1.0774723893        2.0470681455
 H          2.4697462059        0.6225898472       -0.1093872323
 H          3.1597485311       -2.1384956948        2.1414057116
 H          1.5016384590       -3.9377358120        2.5170686473
 H         -0.6390080154       -3.9253899416        1.2964105871
 C         -1.5150779688       -2.1333585482       -0.5344504886
 H         -2.0386254268       -3.0666911903       -0.2878301172
 C         -1.3039607776       -2.0888989790       -2.0353895097
 C         -0.8431253446       -3.3281920684       -2.7391923520
 C         -2.2453438125       -2.8345521593       -2.9303556241
 H         -2.5137362844       -2.3928958599       -3.8782956963
 H         -3.0480351627       -3.3867078861       -2.4631163929
 H         -0.1438470270       -3.2273271193       -3.5551489193
 H         -0.6946634104       -4.2155449726       -2.1422415406
 H         -0.9303556431       -1.1390595309       -2.3937224108
 O         -1.3543413645        0.7629854837       -1.1698107288
