  62
        -98.93666014
 C         -2.1331568697       -0.9367882390        0.1957949690
 C         -2.6029095914       -0.0475106677        1.1879229528
 C         -2.9696267438        1.3051424306        0.7360723578
 C         -2.8004645354        1.6282950972       -0.5580330683
 C         -3.1502878845        2.9291627177       -1.2258054937
 C         -4.5589969898        2.8624061778       -1.8400090765
 C         -5.6945606837        3.2351208223       -0.8874583172
 H         -5.6644640503        4.3101336372       -0.6982617087
 H         -6.6333979276        3.0189179779       -1.4022030266
 C         -5.6905420892        2.5017583689        0.4565102532
 H         -6.6996407315        2.5554504802        0.8694089154
 H         -5.4611716862        1.4463783519        0.2991087268
 C         -4.7077136683        3.1052089357        1.4709069707
 H         -5.2278813382        3.2860737525        2.4137115356
 H         -4.3763104448        4.0782675035        1.1087277823
 C         -3.4846994496        2.2354463868        1.8007135220
 H         -2.6627504996        2.8832265580        2.1242194741
 H         -3.7190779766        1.5828154423        2.6476087674
 H         -4.7106776923        1.8477652070       -2.2171473966
 H         -4.5995307674        3.5381766965       -2.6966221122
 H         -2.4233317860        3.0704178897       -2.0286389159
 H         -3.0637168716        3.7559272552       -0.5268755866
 O         -2.3146866006        0.7494551044       -1.4779122587
 C         -1.9637504953       -0.5436904086       -1.1319179407
 O         -1.5270369926       -1.2304220012       -2.0750945501
 O         -2.7082957275       -0.3681950353        2.4039733479
 C         -1.7168467040       -2.3410212997        0.5969518495
 C         -0.2506095677       -2.5266565238        0.2915130452
 C          0.2677702434       -3.6234632551       -0.3833445001
 C          1.6191207515       -3.6927771828       -0.6787836188
 C          2.4811699370       -2.6776844555       -0.3070559370
 C          1.9750251690       -1.5872166427        0.3856667818
 C          0.6258966393       -1.5236255617        0.6875266045
 H          0.2373650218       -0.6611151945        1.2172458185
 N          2.8503242684       -0.5319021014        0.7535602802
 S          3.2204022761        0.5275620711       -0.5153798577
 O          2.2710019528        1.6233571537       -0.5190472161
 O          3.3490400732       -0.2274365138       -1.7344792886
 C          4.8202813887        1.1204265285        0.0007263944
 C          5.9117987918        0.2945755550       -0.1858360933
 C          7.1572285584        0.7218735462        0.2449234415
 C          7.2891590183        1.9606921086        0.8548973515
 C          6.1842810540        2.7784477062        1.0353036495
 C          4.9353442037        2.3557015973        0.6069836043
 H          4.0501205416        2.9607026721        0.7202746101
 H          6.2894329858        3.7418439961        1.5078089906
 H          8.2593985472        2.2916683594        1.1901119525
 H          8.0188923214        0.0892982648        0.1048380808
 H          5.7616604363       -0.6551617946       -0.6717006003
 H          2.4491936204        0.0311757763        1.4934570888
 H          3.5283105273       -2.7079952918       -0.5582155618
 H          2.0028277573       -4.5467089079       -1.2160754432
 H         -0.3899144982       -4.4181288474       -0.6956229217
 H         -1.8528156471       -2.3881537326        1.6877987849
 C         -2.6115969377       -3.3741559200       -0.0531977646
 C         -2.8435019013       -4.6970630341        0.6120375631
 C         -3.9396811852       -3.6765544926        0.5714672006
 H         -4.7858753638       -3.8502557568       -0.0760845369
 H         -4.1882339179       -3.1535098668        1.4834220841
 H         -2.9401612433       -5.5754084818       -0.0079158061
 H         -2.3515297947       -4.8739894968        1.5563356907
 H         -2.5622172011       -3.3430076125       -1.1359537789
