  62
        -98.94477345
 C         -1.5694909245       -1.2107218597       -0.4283388555
 C         -1.5124246782        0.2004310132       -0.3171116947
 C         -2.6208706790        0.8288136983        0.4160111978
 C         -3.5961666125        0.0732398259        0.9493082843
 C         -4.7749055181        0.5695825640        1.7422289877
 C         -5.9468467524        1.0604786893        0.8809121239
 C         -5.7214062151        2.3970745650        0.1726856999
 H         -6.6911049582        2.7251172184       -0.2070308697
 H         -5.3881303540        3.1393545937        0.8987161543
 C         -4.7288436537        2.3354270281       -0.9966875177
 H         -4.5907566111        1.2957333645       -1.3018641887
 H         -5.1437617099        2.8693604798       -1.8544894654
 C         -3.3600106314        2.9484732435       -0.7000434209
 H         -3.4682586118        4.0208861222       -0.5228386858
 H         -2.7257975781        2.8135841100       -1.5795455271
 C         -2.6410589502        2.3252239318        0.5031803785
 H         -1.6039229652        2.6708902621        0.5104063706
 H         -3.1147364350        2.6438186545        1.4318565108
 H         -6.1822673321        0.2913281340        0.1417524767
 H         -6.8123189000        1.1643918864        1.5394552799
 H         -5.1196526790       -0.2735412857        2.3450129534
 H         -4.4544503273        1.3669191224        2.4138383368
 O         -3.6099844452       -1.2815205915        0.8351260522
 C         -2.6103791775       -1.9470101762        0.1464153430
 O         -2.7611214319       -3.1854130262        0.1076930970
 H          1.2948088613       -0.3235173451       -0.0429817483
 C          1.4487059386       -1.3327706011        0.2983040987
 C          0.6120232587       -2.3445553592       -0.1542410668
 C          0.7982557282       -3.6360220671        0.3246361743
 C          1.7951699455       -3.9060947532        1.2448717096
 C          2.6182888235       -2.8949676679        1.7037051457
 C          2.4413018457       -1.5975011522        1.2308504626
 N          3.2872352942       -0.5754733272        1.6693257148
 S          2.8941578695        1.0490237555        1.6447016298
 O          3.8241875087        1.6350033838        2.5898566283
 O          1.4955282502        1.2752909473        1.9167547404
 C          3.3639360997        1.5593678603        0.0053317511
 C          2.4246367289        1.9789542612       -0.9132583233
 C          2.8528532866        2.3541635850       -2.1785394066
 C          4.1999518498        2.3068452488       -2.4993338364
 C          5.1316340883        1.8864383701       -1.5614028846
 C          4.7117776554        1.5095195150       -0.2971699688
 H          5.4017046338        1.1874090767        0.4650044068
 H          6.1794377923        1.8510763651       -1.8128623320
 H          4.5247808603        2.5993334204       -3.4855729990
 H          2.1248807879        2.6775688561       -2.9056945284
 H          1.3793973607        1.9891283270       -0.6451145403
 H          3.9088206935       -0.8159568564        2.4258780912
 H          3.3911371800       -3.1023089750        2.4281761633
 H          1.9277025227       -4.9118613760        1.6141196626
 H          0.1392698438       -4.4230785003       -0.0119015681
 C         -0.5050446613       -2.0457915300       -1.1268349974
 H         -0.9930301191       -2.9992008801       -1.3723195799
 C          0.0187333121       -1.4347518307       -2.4102685664
 C          0.6591581998       -2.3297218961       -3.4267983605
 C         -0.6851473162       -1.7258600656       -3.6999771199
 H         -0.7608852200       -0.9377399989       -4.4338390108
 H         -1.5516454763       -2.3705749277       -3.6626916040
 H          1.5111290282       -1.9576200322       -3.9744015256
 H          0.7034115755       -3.3857928199       -3.2068412752
 H          0.4284814138       -0.4422118025       -2.2843387580
 O         -0.6054319949        0.9238616544       -0.8033170322
