  62
        -98.94069003
 C          1.3777036226        1.4601290648        0.4137899005
 C          1.8859600671        0.3733469286        1.1716031615
 C          2.9943135532       -0.3751968928        0.5692265908
 C          3.4459128072       -0.0301061418       -0.6498019072
 C          4.5961053291       -0.6657266942       -1.3828292355
 C          4.2198273162       -1.9342612943       -2.1600806606
 C          3.9400844732       -3.1647589939       -1.2968131592
 H          3.9059941876       -4.0251195759       -1.9680118970
 H          4.7723225965       -3.3212591184       -0.6097938490
 C          2.6235476459       -3.0994154221       -0.5098994017
 H          1.9802335503       -2.3257255471       -0.9355446068
 H          2.0927841048       -4.0473539112       -0.6147616948
 C          2.7891557777       -2.8353724214        0.9866101883
 H          1.7941951553       -2.7599139112        1.4308405176
 H          3.3093278307       -3.6750045627        1.4527284127
 C          3.5492082711       -1.5461333173        1.3225850370
 H          4.6114508788       -1.6659234890        1.1095290069
 H          3.4267248915       -1.3438885085        2.3895159501
 H          3.3472154345       -1.7171723170       -2.7803816166
 H          5.0530400741       -2.1657707629       -2.8277317687
 H          4.9596991299        0.0790119261       -2.0942568917
 H          5.3972170406       -0.8930214798       -0.6787262329
 O          2.8981142569        0.9837189275       -1.3684044557
 C          1.8402076212        1.7393735169       -0.8738017695
 O          1.4312000339        2.6017850484       -1.6716781280
 O          1.4381408293        0.0484007333        2.3033061751
 C          0.2422101969        2.2642244762        1.0222841049
 C         -0.9044305726        2.3590313797        0.0496154314
 C         -1.2471410461        3.5295881208       -0.6141526204
 C         -2.2922089941        3.5372226841       -1.5202346828
 C         -3.0280348347        2.3916336255       -1.7623658428
 C         -2.6972107124        1.2161985705       -1.0985787713
 C         -1.6357016728        1.2060163977       -0.2085503392
 H         -1.3733755430        0.2868903062        0.2972048434
 N         -3.4219061315        0.0312597992       -1.3137089234
 S         -3.9055717838       -0.8579697178        0.0230622616
 O         -5.0786082089       -1.5795736391       -0.4246097427
 O         -4.0829987018       -0.0132353326        1.1808006944
 C         -2.6006053785       -2.0342908495        0.3031382063
 C         -2.0415260117       -2.1468875647        1.5601770023
 C         -1.0813557080       -3.1209834511        1.7826036286
 C         -0.7000315871       -3.9613765769        0.7483367712
 C         -1.2625114307       -3.8277662565       -0.5122701877
 C         -2.2253020513       -2.8580804180       -0.7397492538
 H         -2.6944817988       -2.7313774679       -1.7012656300
 H         -0.9566377948       -4.4789309524       -1.3153153882
 H          0.0400455904       -4.7251850467        0.9283271277
 H         -0.6356506179       -3.2158899086        2.7601261870
 H         -2.3638157001       -1.4715743172        2.3371626389
 H         -4.1749196904        0.1195861903       -1.9812886704
 H         -3.8499802912        2.4021958284       -2.4625855499
 H         -2.5419523573        4.4496436399       -2.0404699336
 H         -0.6767757358        4.4271029422       -0.4404875928
 H         -0.0949056879        1.6529173043        1.8762593474
 C          0.6550174640        3.6106961030        1.5972790157
 C          1.9988341800        3.7878332760        2.2373933580
 C          1.6786119272        4.4986878982        0.9584665453
 H          1.5180420776        5.5664834507        0.9945203478
 H          2.1435970188        4.1595107489        0.0467035403
 H          2.0647806398        4.3648245153        3.1475031324
 H          2.6815260595        2.9513016940        2.1985816067
 H         -0.1791715390        4.1073495647        2.0844785855
