  62
        -98.94642361
 C          1.5674043311        1.0861980389        0.0416439305
 C          2.6243644811        0.8043431088        0.9442622005
 C          3.3430349808       -0.4573266914        0.7257162607
 C          2.9428721505       -1.2781032514       -0.2623055092
 C          3.6081857402       -2.5740050216       -0.6226208790
 C          4.6913433202       -2.3625440320       -1.6899064091
 C          5.6616558105       -1.2256271022       -1.3691969993
 H          6.3983540105       -1.1901115525       -2.1747533894
 H          5.1196806007       -0.2773002021       -1.3885710294
 C          6.3838737005       -1.3678533521       -0.0220834893
 H          6.3217165103       -2.3999564721        0.3247706808
 H          7.4417602106       -1.1381511524       -0.1660742894
 C          5.8703850408       -0.4328003319        1.0745475706
 H          5.8452552910        0.5931939781        0.6985711204
 H          6.5819759908       -0.4590955519        1.9040938305
 C          4.4881052907       -0.7717391915        1.6466421007
 H          4.4631907505       -1.8202814714        1.9498507908
 H          4.3358994209       -0.1533792813        2.5360354906
 H          5.2469207700       -3.2946836722       -1.8075720690
 H          4.2024154603       -2.1366064220       -2.6404682991
 H          4.0459420602       -3.0130048616        0.2716408610
 H          2.8523246101       -3.2546177715       -1.0180040189
 O          1.9031894306       -0.9917143913       -1.0849622192
 C          1.2003512608        0.2002274189       -0.9710550593
 O          0.2969507208        0.3329615789       -1.8183568293
 H         -1.5015240588        2.0587443394       -1.2443132595
 C         -1.6467113288        1.8216093996       -0.2027610794
 C         -0.6024667387        1.9754136195        0.6951682005
 C         -0.8164605187        1.6407881697        2.0298478605
 C         -2.0437713188        1.1649616801        2.4518305307
 C         -3.0758941389        0.9843694702        1.5468132107
 C         -2.8656112389        1.3028606399        0.2121790607
 N         -3.8844688390        1.0588669700       -0.7270995892
 S         -4.6281877193       -0.4388919798       -0.6405154890
 O         -5.0120603894       -0.7586493799       -1.9982710589
 O         -5.7126105592       -0.3749100194        0.3096320410
 C         -3.3966402395       -1.5912226700       -0.0481295289
 C         -2.1611082695       -1.6388940204       -0.6623847289
 C         -1.2160444697       -2.5370572105       -0.1930728088
 C         -1.5186814699       -3.3729724603        0.8701056713
 C         -2.7671124798       -3.3187304799        1.4704668413
 C         -3.7145640096       -2.4188394398        1.0104086913
 H         -4.6932274296       -2.3355285395        1.4547314913
 H         -3.0020240499       -3.9700174598        2.2968990014
 H         -0.7763174600       -4.0672979704        1.2312928914
 H         -0.2439170098       -2.5628028308       -0.6604754489
 H         -1.9213575294       -0.9767289605       -1.4795445290
 H         -3.6044829090        1.2587076598       -1.6769260593
 H         -4.0339076890        0.5942744004        1.8510297208
 H         -2.1965730388        0.9175823402        3.4911309907
 H          0.0005149313        1.7438885197        2.7300763605
 C          0.7804110814        2.3719153891        0.2436956704
 H          1.2795898215        2.8943679891        1.0702194403
 C          0.8039551315        3.2602004189       -0.9816979898
 C          0.3730257518        4.6903415791       -0.8590773900
 C          1.8188303717        4.3586560387       -1.0708982500
 H          2.2624435718        4.5725572885       -2.0318812300
 H          2.4986049718        4.4807005887       -0.2404228800
 H          0.0697796919        5.0359395793        0.1175626400
 H         -0.1776883781        5.1362097091       -1.6732627600
 H          0.5668343314        2.7366095389       -1.8998427897
 O          2.9502804213        1.5736197789        1.8865587204
