  62
        -98.93361271
 C          2.5372526699        1.0130937095        0.3960398806
 C          2.6164491491       -0.1743752607        1.1606287404
 C          3.5396133286       -1.2163855411        0.6798049202
 C          4.2170178488       -1.0163904813       -0.4664503797
 C          5.2544351584       -1.8622246817       -1.1753349397
 C          5.4895542575       -3.3143792419       -0.7690447900
 C          4.3344325470       -4.2613098212       -1.0938953403
 H          4.2827905670       -4.3845073910       -2.1786360903
 H          4.5585021564       -5.2376178914       -0.6587886405
 C          2.9566035172       -3.8080649305       -0.6177678903
 H          2.6877015578       -2.8711854703       -1.1103855102
 H          2.2290534468       -4.5591380600       -0.9372604005
 C          2.8118590672       -3.6349666107        0.8926639797
 H          3.1037872566       -4.5576145210        1.3980721495
 H          1.7536939773       -3.4581346102        1.1036748396
 C          3.6070201578       -2.4695847713        1.5051949300
 H          4.6404131576       -2.7517787019        1.6913360600
 H          3.1553292379       -2.2244448712        2.4709105600
 H          5.7490692474       -3.3726163923        0.2838972100
 H          6.3639458774       -3.6566730423       -1.3291915800
 H          4.9950300285       -1.8242781614       -2.2381904998
 H          6.1985565387       -1.3161447823       -1.0708125696
 O          4.0697853295        0.1273286590       -1.1968283195
 C          3.2337773101        1.1593594094       -0.8024410293
 O          3.2109907507        2.1219336795       -1.5912579991
 O          1.9488557589       -0.3558933605        2.2154214703
 C          1.6165074105        2.1218611300        0.8781846607
 C          0.4054167806        2.1702796508       -0.0211711494
 C          0.1928687112        3.1607002311       -0.9702092292
 C         -0.9267559087        3.1176949619       -1.7838415093
 C         -1.8533116493        2.0982679724       -1.6669973596
 C         -1.6537975200        1.1060016421       -0.7148580698
 C         -0.5322798300        1.1509924013        0.0997826703
 H         -0.3685478305        0.3771296811        0.8393118802
 N         -2.5862748606        0.0579319426       -0.5922665901
 S         -4.2204138203        0.4915155136       -0.6109647001
 O         -4.6398002001        0.6247770841       -1.9837652601
 O         -4.4356897097        1.6485795135        0.2287907101
 C         -4.9747187912       -0.9508615061        0.1132676395
 C         -5.2501925118       -2.0378108658       -0.6944648507
 C         -5.8186914425       -3.1665540556       -0.1260122310
 C         -6.0993973726       -3.1899399457        1.2321515290
 C         -5.8175794720       -2.0910114060        2.0297795692
 C         -5.2482048813       -0.9591600962        1.4679427795
 H         -5.0217241609       -0.0785770565        2.0477671997
 H         -6.0394932521       -2.1109469161        3.0846640092
 H         -6.5436767031       -4.0689429755        1.6717007188
 H         -6.0417212829       -4.0222346053       -0.7426847012
 H         -5.0236900816       -1.9705091157       -1.7457251407
 H         -2.3792057710       -0.5389412676        0.1972048098
 H         -2.7313745693        2.0609657531       -2.2916937097
 H         -1.0799782682        3.8909935722       -2.5217966792
 H          0.9094703117        3.9571110407       -1.0831511190
 H          1.2796178402        1.8029949700        1.8746687406
 C          2.3398105212        3.4438560195        1.0121836510
 C          1.7278086118        4.5341317797        1.8382863612
 C          2.9451683013        3.8133110189        2.3319549112
 H          3.8892431716        4.3370349984        2.3361170913
 H          2.8304685508        3.1148015588        3.1479786910
 H          1.8339869224        5.5552797097        1.5056168214
 H          0.7833404616        4.3244139302        2.3175393711
 H          2.8864095615        3.7254375394        0.1206562911
