  62
        -98.94878078
 C          1.8167883826        1.3322443314       -0.2491506393
 C          2.8879795129        0.6436017541        0.3645024100
 C          3.2587330154       -0.6364602365       -0.2462027307
 C          2.5923187309       -1.0772059521       -1.3291801702
 C          2.8406181604       -2.3720495231       -2.0532057846
 C          2.1165123481       -3.5661844743       -1.4156556928
 C          2.7345669760       -4.0756727460       -0.1128976088
 H          2.2837246689       -5.0478713754        0.0964723134
 H          3.8051851331       -4.2331545754       -0.2521378354
 C          2.4963678571       -3.1568580541        1.0936494838
 H          1.6679579448       -2.4791413438        0.8698333759
 H          2.1853885987       -3.7586603910        1.9518650263
 C          3.7187465579       -2.3462844367        1.5274251527
 H          4.4963245505       -3.0243794476        1.8872897714
 H          3.4236030838       -1.7017567282        2.3599587395
 C          4.3163148232       -1.4569516008        0.4291366129
 H          5.0253296289       -0.7681898703        0.8957993221
 H          4.8484147852       -2.0672669494       -0.2999880832
 H          2.1214505341       -4.3822534473       -2.1422698930
 H          1.0763497439       -3.2837037973       -1.2314437971
 H          3.9112306272       -2.5730262951       -2.1029967691
 H          2.4609487595       -2.2403061618       -3.0686289083
 O          1.5921762168       -0.3689160011       -1.9115200227
 C          1.1362964655        0.8116207544       -1.3508919738
 O          0.1491590818        1.3072399371       -1.9282622804
 O          3.4942737524        1.0721375977        1.3857089849
 C          1.2869174047        2.6040134248        0.3931616431
 C         -0.1501745744        2.3592704663        0.7813093692
 C         -1.2004232487        3.2129735266        0.4717968656
 C         -2.5077895112        2.8515095597        0.7527798691
 C         -2.7966685001        1.6235362247        1.3203134925
 C         -1.7495257175        0.7778212407        1.6592503149
 C         -0.4427630283        1.1616789900        1.4235380891
 H          0.3637122010        0.4856185987        1.6813940232
 N         -2.0465177012       -0.5330037739        2.1411194888
 S         -1.9245429799       -1.6377140571        0.8632043483
 O         -2.2661305679       -2.9273552670        1.4268324722
 O         -0.6284254902       -1.5717046952        0.2230264842
 C         -3.2100160078       -1.0765786395       -0.2249316601
 C         -4.5018793113       -1.4994603565        0.0223805579
 C         -5.5267896876       -1.0238960567       -0.7787950170
 C         -5.2426490759       -0.1326274277       -1.8031199762
 C         -3.9404949155        0.2821958905       -2.0357409708
 C         -2.9077514237       -0.1908026541       -1.2400978561
 H         -1.8854834753        0.1208929971       -1.3967453124
 H         -3.7144603734        0.9774620218       -2.8281995803
 H         -6.0403799523        0.2421579742       -2.4249192488
 H         -6.5404924057       -1.3449353164       -0.6010801907
 H         -4.6692204048       -2.1934068727        0.8296199815
 H         -1.4076679352       -0.8325254801        2.8670486718
 H         -3.8120773989        1.3087741344        1.4975395723
 H         -3.3131571204        3.5221747047        0.4966751147
 H         -0.9960521301        4.1539254555       -0.0124420953
 H          1.8851645294        2.7472735980        1.3052716336
 C          1.4780622588        3.7987808733       -0.5152664801
 C          1.6144768728        5.1737576344        0.0660238054
 C          2.8065596768        4.4913938431       -0.5324960052
 H          3.1886452865        4.8488949352       -1.4767457030
 H          3.5704467109        4.1138849453        0.1315711043
 H          1.1804694052        6.0049779376       -0.4685867698
 H          1.5727536615        5.2685962652        1.1405089726
 H          0.9586697916        3.6880578169       -1.4604107164
