  62
        -98.94486882
 C         -1.9287769086       -0.1944532669        0.0701273996
 C         -2.9606777297       -1.0482206199        0.5288931784
 C         -4.2674436978       -0.4160188203        0.7505654187
 C         -4.4016810763        0.9061401215        0.5393613829
 C         -5.6872478196        1.6685444978        0.6750508250
 C         -6.4454045057        1.7189345640       -0.6588396532
 C         -6.5908516672        0.3573545614       -1.3386084148
 H         -7.1679392209        0.5107924780       -2.2531280531
 H         -5.6025284368        0.0016575228       -1.6389462944
 C         -7.2743517114       -0.7129277453       -0.4761246171
 H         -8.0075806247       -1.2406049531       -1.0897182888
 H         -7.8181592369       -0.2379444906        0.3412074919
 C         -6.3263595295       -1.7704048068        0.0925817475
 H         -6.9311257465       -2.5875096409        0.4947609440
 H         -5.7130914394       -2.1827801557       -0.7126057597
 C         -5.3935862809       -1.2966489999        1.2143703222
 H         -5.9764269419       -0.8003600707        1.9928713421
 H         -4.9213767756       -2.1821594373        1.6497162404
 H         -7.4339224244        2.1451687478       -0.4782475739
 H         -5.9071032623        2.3845634415       -1.3376654554
 H         -5.4514361078        2.6872241224        0.9874924352
 H         -6.3043138936        1.1982872644        1.4381704260
 O         -3.3800524945        1.6993674817        0.1271493081
 C         -2.1220992394        1.1722169311       -0.1304563419
 O         -1.2866429691        2.0094133953       -0.5203899538
 O         -2.7948120495       -2.2787239481        0.7452589469
 C         -0.5592125547       -0.7906867538       -0.2066392190
 C          0.4717147343       -0.1143984701        0.6612631699
 C          0.3154894474       -0.1779327272        2.0446800309
 C          1.2089439196        0.4529589132        2.8867753427
 C          2.2851841192        1.1527561590        2.3682083288
 C          2.4529208585        1.2203706381        0.9910527230
 C          1.5525627952        0.5822443042        0.1464900918
 H          1.6978525937        0.6700050992       -0.9164443441
 N          3.5239976870        1.9431777392        0.4418786330
 S          4.4379364684        1.3151717488       -0.8070763047
 O          5.6117222640        2.1587307645       -0.8540545828
 O          3.6598623184        1.2361230239       -2.0161220349
 C          4.8886345065       -0.3164614422       -0.2458292066
 C          4.1116568995       -1.4006036593       -0.6000061743
 C          4.4375230105       -2.6495251317       -0.0945056462
 C          5.5267995432       -2.7920407138        0.7508842948
 C          6.3001335566       -1.6930962881        1.0937558062
 C          5.9770570279       -0.4415465911        0.5958798299
 H          6.5568760225        0.4368587187        0.8288382481
 H          7.1499167934       -1.8079656472        1.7471950151
 H          5.7753822798       -3.7660359468        1.1419055850
 H          3.8382806067       -3.5051766368       -0.3621771321
 H          3.2753120913       -1.2529520425       -1.2627703710
 H          4.1161141190        2.3928009417        1.1247139200
 H          2.9805154097        1.6548561436        3.0236470294
 H          1.0702797883        0.3998956730        3.9560733024
 H         -0.5283380350       -0.7212193604        2.4477693385
 H         -0.6350264134       -1.8428982177        0.1047931000
 C         -0.2499457754       -0.7445439036       -1.6873721932
 C          0.6663577268       -1.7627333584       -2.2948417269
 C         -0.8044835138       -1.8140474090       -2.5782002183
 H         -1.1533557379       -1.5361130181       -3.5615186776
 H         -1.3878294994       -2.5946678370       -2.1118856765
 H          1.3329873665       -1.4491166746       -3.0848517188
 H          1.0746182643       -2.5176316589       -1.6396457753
 H         -0.2256880785        0.2649050225       -2.0832990779
