  62
        -98.94687202
 C         -1.1504673115       -1.1582025195       -0.1829516164
 C         -2.0074312481       -0.8476877186        0.9068471936
 C         -2.8339554490        0.3568852400        0.7689486423
 C         -2.7240707781        1.1007061249       -0.3464318263
 C         -3.5570390164        2.3100485059       -0.6572025038
 C         -4.8264897841        1.9237213123       -1.4295645700
 C         -5.6076754632        0.7708001361       -0.7991156316
 H         -6.4981819270        0.6086094961       -1.4103490685
 H         -5.0084259544       -0.1406753560       -0.8577249681
 C         -6.0251278504        1.0089264749        0.6589145604
 H         -7.0671656127        0.7049151377        0.7788245128
 H         -5.9708385720        2.0730411418        0.8916912284
 C         -5.2109930136        0.2221248040        1.6878194025
 H         -5.1903672923       -0.8341023069        1.4077307573
 H         -5.7215093255        0.2941573762        2.6519185673
 C         -3.7664897419        0.6936305970        1.8981602420
 H         -3.7572983786        1.7666019032        2.1002489146
 H         -3.3737424368        0.1741909004        2.7769895386
 H         -4.5404816266        1.6294982908       -2.4419713304
 H         -5.4684449118        2.8036668545       -1.5006984151
 H         -2.9651274092        2.9902444433       -1.2714531406
 H         -3.8272511187        2.8103721030        0.2709427266
 O         -1.8629623260        0.8002894375       -1.3477748095
 C         -1.0573892468       -0.3260273700       -1.2987768409
 O         -0.3259397729       -0.4490859114       -2.3027435833
 O         -2.0837520623       -1.5573124491        1.9445247436
 C         -0.3342240671       -2.4352839676       -0.0570795151
 C          1.0764170826       -2.1295626663        0.3829366465
 C          1.5529019741       -2.5522429033        1.6181103190
 C          2.8378377269       -2.2360908849        2.0265359923
 C          3.6693274102       -1.4820302128        1.2171039199
 C          3.1960688305       -1.0488663100       -0.0140958102
 C          1.9170927956       -1.3825348253       -0.4301433543
 H          1.5554467972       -1.0303004952       -1.3846421836
 N          4.0125847344       -0.2192122422       -0.8216655431
 S          4.1778681755        1.3369737488       -0.2211551892
 O          4.7646602414        2.1158881162       -1.2872895383
 O          4.9256707668        1.2736987641        1.0087050635
 C          2.5171202607        1.9014229792        0.1115949983
 C          1.9069522989        1.5327947320        1.2942972037
 C          0.6044505133        1.9407221464        1.5304073302
 C         -0.0578507570        2.7152909247        0.5911335516
 C          0.5649977145        3.0695707551       -0.5950619308
 C          1.8622130320        2.6519949709       -0.8433698280
 H          2.3821654502        2.9071197355       -1.7530660120
 H          0.0425699789        3.6626368167       -1.3285027415
 H         -1.0676571372        3.0399866042        0.7859709550
 H          0.1077117898        1.6495432731        2.4424348380
 H          2.4564747084        0.9443944223        2.0108058999
 H          3.6714725276       -0.1576098351       -1.7720999899
 H          4.6612202105       -1.1984691747        1.5293598810
 H          3.1934271320       -2.5737797096        2.9881107061
 H          0.9018163140       -3.1179688155        2.2683674707
 H         -0.8180017169       -3.0059636582        0.7468220323
 C         -0.3409072328       -3.2804728912       -1.3159658745
 C         -0.0152843377       -4.7392538570       -1.2123888210
 C         -1.4182224192       -4.3032406213       -1.5089385450
 H         -1.8095796025       -4.4571972162       -2.5033760912
 H         -2.1588675608       -4.4038674683       -0.7289087385
 H          0.5601672596       -5.1956867989       -2.0029856908
 H          0.1946145478       -5.1365281233       -0.2308837797
 H          0.0006879798       -2.7499186794       -2.1950586134
