  62
        -98.94527154
 C         -1.6009988508       -0.1879319981       -0.6194310793
 C         -2.8755168700       -0.6714421828       -1.0070198825
 C         -3.9240210354       -0.6165484569        0.0167162784
 C         -3.6271076338       -0.1706828277        1.2508137033
 C         -4.5771564436       -0.0896389545        2.4149003280
 C         -5.4394872924        1.1800676881        2.4311295878
 C         -6.5475685203        1.2274416618        1.3782934748
 H         -7.1408407223        0.3143487035        1.4361844926
 H         -7.2038241951        2.0593079047        1.6416595497
 C         -6.0471246669        1.4291779803       -0.0587957703
 H         -5.0194755923        1.7988876216       -0.0376307636
 H         -6.6524032963        2.1935755392       -0.5511240170
 C         -6.1034595886        0.1753108858       -0.9314455126
 H         -5.6926781062        0.4227049996       -1.9135180234
 H         -7.1431878761       -0.1297735776       -1.0684613397
 C         -5.3144202288       -1.0170671875       -0.3748125415
 H         -5.8391414750       -1.4519372558        0.4756382734
 H         -5.2338719728       -1.7724878929       -1.1602625112
 H         -5.9024357465        1.2460727003        3.4184695171
 H         -4.7857586096        2.0471888299        2.3123721574
 H         -5.2218816689       -0.9690404662        2.4234327445
 H         -3.9625028634       -0.1008911369        3.3177588399
 O         -2.3824469832        0.2524930109        1.5954762681
 C         -1.3442742290        0.2725049468        0.6726085100
 O         -0.2756043433        0.7230420825        1.1257106084
 O         -3.1233925977       -1.1304192771       -2.1540913685
 C         -0.4776458640       -0.2292963536       -1.6429291780
 C          0.4916618475       -1.3130099351       -1.2381077784
 C          0.0916508993       -2.6440728539       -1.3355467014
 C          0.9399855874       -3.6640160817       -0.9518354123
 C          2.1980216823       -3.3781371695       -0.4478851154
 C          2.6040520665       -2.0547915557       -0.3398250138
 C          1.7566538887       -1.0334186791       -0.7484983995
 H          2.0884913945       -0.0142731989       -0.6684643450
 N          3.8797727528       -1.7211266674        0.1502103056
 S          3.9783566399       -0.6058237031        1.4078839572
 O          5.2953736855       -0.8292011107        1.9706014393
 O          2.8714987076       -0.7489993825        2.3237858332
 C          3.9657682224        0.9826288807        0.6063643039
 C          2.9122722154        1.8529071879        0.8058808222
 C          2.9342637925        3.0801141272        0.1602135231
 C          3.9983561017        3.4123887029       -0.6641400022
 C          5.0494248930        2.5265344910       -0.8490878784
 C          5.0364236048        1.2990538874       -0.2069962277
 H          5.8340439830        0.5834567430       -0.3161982509
 H          5.8742910703        2.7883089784       -1.4918508363
 H          4.0053780264        4.3672790657       -1.1661613816
 H          2.1130984119        3.7653203404        0.3010515840
 H          2.0842457694        1.5472984419        1.4275892965
 H          4.4611416390       -2.5217517262        0.3569720604
 H          2.8589635037       -4.1740823614       -0.1383459852
 H          0.6193871683       -4.6915281673       -1.0375393537
 H         -0.8964406016       -2.8648792927       -1.7152213267
 H         -0.9562407096       -0.5407353780       -2.5823545259
 C          0.1654494003        1.1259929550       -1.8428457599
 C          1.0435493818        1.3603083973       -3.0345736087
 C         -0.3046267988        2.0097423851       -2.9572245026
 H         -0.3570266530        3.0737147774       -2.7824060343
 H         -1.0905893448        1.6338839439       -3.5959645187
 H          1.9212963204        1.9764027003       -2.9112865327
 H          1.1724173027        0.5413255962       -3.7257338248
 H          0.4396858782        1.6070820029       -0.9122670938
