  62
        -98.93990760
 C          2.8961357279        1.0866623685        0.2865354306
 C          2.6223958840        0.1307705697        1.3040194536
 C          3.0213645431       -1.2517499132        1.0289815692
 C          3.7154670557       -1.5291543642       -0.0892325600
 C          4.1928833675       -2.8883346948       -0.5226507369
 C          3.1442722495       -3.6789728386       -1.3176799233
 C          1.9623413736       -4.1964814357       -0.4960833223
 H          1.4057561365       -4.8892499104       -1.1303203502
 H          2.3355918189       -4.7627622405        0.3578412798
 C          1.0043515480       -3.1014836848       -0.0041252946
 H          1.1778292873       -2.1809355677       -0.5687953130
 H         -0.0322014350       -3.3904643964       -0.1991340637
 C          1.1124023215       -2.7888184110        1.4887053224
 H          0.8325989149       -3.6732844455        2.0655248396
 H          0.3881896557       -2.0013860400        1.7177696894
 C          2.5061827685       -2.3241369718        1.9387770905
 H          3.1930257845       -3.1698323324        1.9670004406
 H          2.4211802225       -1.9032112290        2.9431718574
 H          3.6500552192       -4.5365660950       -1.7669927719
 H          2.7733247863       -3.0485906502       -2.1295582587
 H          5.0612858778       -2.7265553631       -1.1647530527
 H          4.5034047073       -3.4645839218        0.3485786887
 O          4.0730821366       -0.5659269264       -0.9753401243
 C          3.6047710203        0.7459471644       -0.8640524722
 O          3.9163808545        1.4551468932       -1.8378261814
 O          2.0473988689        0.4287404866        2.3836961374
 C          2.2553451748        2.4476239182        0.5151991217
 C          0.7559708239        2.2584438780        0.5489368492
 C         -0.0429223368        2.9378726914        1.4595494657
 C         -1.4078101520        2.7131692643        1.5036620279
 C         -2.0002108079        1.7969542299        0.6535797728
 C         -1.2093357014        1.1043864061       -0.2534042199
 C          0.1527600345        1.3543199321       -0.3139265656
 H          0.7650422794        0.8069949378       -1.0216359424
 N         -1.8014648200        0.1389747202       -1.0918014273
 S         -2.5979743174       -1.1225794067       -0.3047376471
 O         -2.0943292584       -1.3134202196        1.0338621007
 O         -2.5048625252       -2.2535536816       -1.2019581537
 C         -4.2870601687       -0.5622130608       -0.2472749908
 C         -4.9187663913       -0.4067780043        0.9708536901
 C         -6.2321837361        0.0365594473        0.9925823277
 C         -6.8863713405        0.3148829518       -0.1977651462
 C         -6.2384513644        0.1507740069       -1.4132392903
 C         -4.9261119418       -0.2930595468       -1.4417962897
 H         -4.3873792303       -0.4383953084       -2.3632161676
 H         -6.7507285550        0.3677437981       -2.3367162593
 H         -7.9074685416        0.6616004245       -0.1779945156
 H         -6.7375073838        0.1637610709        1.9364656917
 H         -4.3673140611       -0.6309209757        1.8702030822
 H         -1.1581068376       -0.2418626573       -1.7716944541
 H         -3.0589086367        1.5992763560        0.6972764084
 H         -2.0155342850        3.2455483671        2.2192006763
 H          0.4160831662        3.6228605347        2.1570937004
 H          2.5606336292        2.7652326959        1.5262283216
 C          2.6811874467        3.5371138648       -0.4531325961
 C          1.8782230549        3.8975664281       -1.6634185857
 C          1.9495874467        4.8452662887       -0.5055787701
 H          2.5292119745        5.7491328879       -0.6141869480
 H          1.0646355039        4.9546636293        0.1021792839
 H          2.4155332262        4.1305656619       -2.5696489751
 H          0.9508042624        3.3708776957       -1.8308720902
 H          3.7580345324        3.5789799164       -0.5657427539
