  62
        -98.93393360
 C          2.0704352794        1.0115631298       -0.4154192900
 C          3.0129779493        0.7357373794        0.6102051000
 C          3.5881031589       -0.6158968808        0.6380271399
 C          3.1800860888       -1.5154172205       -0.2750017003
 C          3.7099848984       -2.9129134307       -0.4268202905
 C          5.0840654585       -2.8859460909       -1.1261916304
 C          6.2459171983       -3.3534043913       -0.2494025304
 H          6.2128138480       -4.4418113513       -0.1674609605
 H          7.1715942584       -3.0892673615       -0.7649375303
 C          6.2837602384       -2.7783730815        1.1696611497
 H          5.5755206482       -3.3153042415        1.8025014096
 H          7.2782500783       -2.9854427519        1.5704415897
 C          6.0069325487       -1.2742823415        1.2909806899
 H          6.6806811988       -0.8646939018        2.0461939200
 H          6.2320945789       -0.7645065414        0.3540749500
 C          4.5744643388       -0.9196864612        1.7318061799
 H          4.6095046290       -0.0083325013        2.3361049000
 H          4.1783856786       -1.7173800812        2.3668395897
 H          5.0513400884       -3.5169780808       -2.0155702105
 H          5.2723751987       -1.8669235909       -1.4703092502
 H          2.9881210083       -3.4688472204       -1.0256502106
 H          3.7854190382       -3.3836563508        0.5510234095
 O          2.2680163389       -1.2213201802       -1.2348222803
 C          1.6831748092        0.0325549800       -1.3296739402
 O          0.8588336093        0.1190901103       -2.2632766002
 O          3.3608120595        1.5927478792        1.4665557002
 C          1.4716425898        2.4096815999       -0.4250164698
 C          0.1318038997        2.4026679802        0.2723302401
 C         -0.0643680702        3.1016234500        1.4572662002
 C         -1.2813219402        3.0481932003        2.1151607001
 C         -2.3238684504        2.2912406106        1.6109486399
 C         -2.1338672205        1.5854341007        0.4307118998
 C         -0.9210775604        1.6553302605       -0.2366042601
 H         -0.7788678405        1.0924276006       -1.1475416801
 N         -3.1843054907        0.7789009611       -0.0795344503
 S         -3.4541797311       -0.6212969690        0.8345104495
 O         -3.7759525711       -0.2282737591        2.1824141295
 O         -2.3431355213       -1.5396434793        0.6862282694
 C         -4.9036879112       -1.2766372285        0.0316840593
 C         -4.7563585314       -2.2267220184       -0.9602046809
 C         -5.8875843115       -2.7087508580       -1.6000178910
 C         -7.1391414114       -2.2317133878       -1.2410563710
 C         -7.2704998912       -1.2766481979       -0.2439226009
 C         -6.1436322411       -0.7913883583        0.4000524893
 H         -6.1966674809       -0.0560860184        1.1854952794
 H         -8.2456029611       -0.9100763877        0.0333916991
 H         -8.0173315614       -2.6093224875       -1.7405165811
 H         -5.7875036616       -3.4526634580       -2.3740495611
 H         -3.7643435115       -2.5756402886       -1.2006588908
 H         -2.9630529707        0.4762374011       -1.0213468104
 H         -3.2657832804        2.2171644808        2.1284161899
 H         -1.4170487401        3.5955769502        3.0356288202
 H          0.7532887500        3.6715594898        1.8742124503
 H          2.1573360399        3.0193792297        0.1785471003
 C          1.3725268400        3.0248503801       -1.8065481797
 C          1.2690329604        4.5145644502       -1.9291294995
 C          2.5280927202        3.8141490699       -2.3413194996
 H          2.7592093703        3.7386372900       -3.3931645396
 H          3.3985127002        3.9151711396       -1.7095046295
 H          0.6326273806        4.9240564105       -2.6982556295
 H          1.2861821305        5.0926493100       -1.0177152495
 H          0.8166239399        2.4198878904       -2.5105347199
