  62
        -98.93972697
 C          0.4298916892        1.9196272244        0.0323092618
 C          1.6597622021        1.9592806595        0.7315727080
 C          2.7442998605        1.1063217943        0.2207206878
 C          2.5123203684        0.3078635293       -0.8373206059
 C          3.4407138085       -0.6204114414       -1.5907706677
 C          4.7072061443       -1.1593442406       -0.9297334555
 C          4.4708274381       -2.0374646226        0.2974114871
 H          3.9571846739       -2.9511899560       -0.0132268590
 H          5.4459842518       -2.3256254287        0.6973382445
 C          3.6503270825       -1.4039628299        1.4196519553
 H          2.6106234728       -1.2781114769        1.1064714090
 H          3.6332242959       -2.1065920533        2.2582029143
 C          4.1775686514       -0.0686254526        1.9448572892
 H          3.6126944016        0.1645713651        2.8515820886
 H          5.2285626042       -0.1723265617        2.2224236702
 C          4.0327439922        1.1317257892        0.9896311810
 H          4.0145652755        2.0428830825        1.5946927856
 H          4.8802101186        1.2056562593        0.3113584631
 H          5.2118036870       -1.7729443193       -1.6812241503
 H          5.3829235332       -0.3465704864       -0.6803346248
 H          2.8183261255       -1.4632117784       -1.9032405615
 H          3.7289879347       -0.0878207142       -2.5039781002
 O          1.3020457087        0.2798507666       -1.4632095277
 C          0.2294374004        1.0502155012       -1.0399334292
 O         -0.8122953891        0.8630874840       -1.6941100982
 O          1.8478302413        2.6849922034        1.7462696050
 C         -0.7203989207        2.7480841465        0.5734740416
 C         -1.9584757673        1.8945119839        0.7037208519
 C         -3.2346075219        2.3213559862        0.3596795129
 C         -4.3212849091        1.4771021010        0.5131649302
 C         -4.1586710131        0.1867776342        0.9815573068
 C         -2.8832778344       -0.2521624868        1.3209569547
 C         -1.8071194412        0.6098248253        1.2108011831
 H         -0.8265178505        0.2581806983        1.4958874282
 N         -2.6605960522       -1.5650838155        1.7734685517
 S         -1.3297736335       -2.4174582705        1.2418425253
 O         -1.6293820110       -3.7913250502        1.5963567605
 O         -0.1203369236       -1.8835954857        1.8184938081
 C         -1.2564486974       -2.3057986101       -0.5382048609
 C         -2.3914553328       -2.0834960986       -1.2893678916
 C         -2.2885856988       -2.0744447399       -2.6708305140
 C         -1.0652047004       -2.3052643505       -3.2764406997
 C          0.0632583729       -2.5415948377       -2.5089426746
 C         -0.0308034747       -2.5381282890       -1.1276572342
 H          0.8253172429       -2.6982241742       -0.4897895951
 H          1.0153000537       -2.7197300872       -2.9840224146
 H         -0.9873158779       -2.2937260948       -4.3522352496
 H         -3.1643621231       -1.8802342449       -3.2687845449
 H         -3.3373002158       -1.9010487383       -0.8069065235
 H         -3.4803095201       -2.1542860037        1.7999587742
 H         -5.0043772809       -0.4770483035        1.0811654356
 H         -5.3077262158        1.8241059740        0.2458713121
 H         -3.3816658019        3.3099754628       -0.0424143603
 H         -0.3981293662        3.0244159607        1.5925681147
 C         -0.9617546815        4.0531355413       -0.1730219929
 C          0.0788899012        4.6366501438       -1.0802017204
 C         -1.1887994493        4.0828195990       -1.6539928630
 H         -1.9168212053        4.7762743811       -2.0487193965
 H         -1.1462908385        3.1408376955       -2.1774921084
 H          0.2203051645        5.7072370239       -1.0726978950
 H          0.9920956497        4.0768574277       -1.2225391128
 H         -1.5240750749        4.7669903096        0.4208590307
