  62
        -98.94007934
 C          2.6366929622        1.1429063546        0.2672044224
 C          2.5686112771        0.3007545279       -0.8706725133
 C          3.4151432860       -0.9027771438       -0.8280049479
 C          4.1785035732       -1.1408898022        0.2529563464
 C          5.0361873304       -2.3567208687        0.4486856467
 C          4.2617216966       -3.4705723720        1.1675210990
 C          2.8860275511       -3.7561354353        0.5644181317
 H          2.4458509931       -4.5773338726        1.1345228494
 H          2.2437171519       -2.8842346599        0.7110241679
 C          2.9089477066       -4.1222890869       -0.9262833292
 H          3.9155348323       -4.4250378937       -1.2169846045
 H          2.2534878422       -4.9811035284       -1.0851494317
 C          2.4239737637       -3.0121005331       -1.8606325585
 H          1.4553794292       -2.6390695486       -1.5174892175
 H          2.2745694301       -3.4449619134       -2.8531898500
 C          3.3700599647       -1.8154382887       -2.0211040901
 H          4.3713659553       -2.1681433422       -2.2759406201
 H          2.9965529161       -1.2072179563       -2.8500006211
 H          4.8654348217       -4.3796296837        1.1470821814
 H          4.1237033852       -3.1781996712        2.2112869057
 H          5.3850196966       -2.7088313929       -0.5200477043
 H          5.8985606169       -2.0763207201        1.0558509504
 O          4.2096557990       -0.3154934157        1.3312948853
 C          3.4246219671        0.8255810091        1.3757896950
 O          3.5088261639        1.4618708273        2.4461360316
 H          0.2293270713        0.5048719993        1.3852478445
 C         -0.2924894374        1.0486827813        0.6054531334
 C          0.3670009472        2.0823034131       -0.0498264239
 C         -0.3137538418        2.7760358269       -1.0404662226
 C         -1.6121180515        2.4281229604       -1.3715213217
 C         -2.2565248099        1.3868513570       -0.7303587716
 C         -1.5873197065        0.6892014478        0.2670917173
 N         -2.2239447886       -0.3861798593        0.9115346110
 S         -3.7720336169       -0.1526042943        1.5169569409
 O         -3.9893567227        1.2239666614        1.8979762662
 O         -3.9184879527       -1.1391360117        2.5652837563
 C         -4.8365344603       -0.5880234034        0.1583108860
 C         -4.6611884671       -1.8220806698       -0.4364229589
 C         -5.4889171909       -2.1811973724       -1.4880600118
 C         -6.4745927458       -1.3070781252       -1.9218688773
 C         -6.6401056864       -0.0731779272       -1.3117379914
 C         -5.8143925559        0.2929601745       -0.2600788548
 H         -5.9014182530        1.2441735868        0.2403562872
 H         -7.4068859033        0.6046968782       -1.6506423043
 H         -7.1173454364       -1.5896298744       -2.7405859534
 H         -5.3623269763       -3.1394538057       -1.9656268380
 H         -3.8852883653       -2.4726105969       -0.0685017020
 H         -1.6436888346       -0.8539272465        1.5925554644
 H         -3.2636808026        1.1077996915       -0.9937080689
 H         -2.1268560090        2.9713426476       -2.1493248219
 H          0.1784903241        3.5743865370       -1.5706076699
 C          1.7808582624        2.3932321282        0.3798823243
 H          1.7554681455        2.6222195506        1.4589828331
 C          2.3670073602        3.6191461442       -0.3042964714
 C          3.8464089942        3.7609184411       -0.5000250929
 C          2.9492533894        3.5673628435       -1.6835626778
 H          2.7830203023        4.4086172007       -2.3405554161
 H          2.9549185272        2.6137638888       -2.1864001505
 H          4.4738905760        2.9374670614       -0.1904303959
 H          4.2927317133        4.7313000000       -0.3418372562
 H          1.8329724324        4.5249486180       -0.0334115197
 O          1.8431354160        0.5260395953       -1.8719489611
