  62
        -98.94008633
 C         -2.6217503655       -1.1508805145        0.2769063077
 C         -2.5750468899       -0.3167314828       -0.8678400442
 C         -3.4459682774        0.8695471429       -0.8314019056
 C         -4.2098485193        1.1006462907        0.2507381118
 C         -5.0940126459        2.2985151089        0.4392696294
 C         -4.3422892320        3.4358726554        1.1452443532
 C         -2.9756572693        3.7465926768        0.5340987033
 H         -2.5514957893        4.5823096698        1.0951722295
 H         -2.3136338629        2.8904263967        0.6856197565
 C         -3.0127124808        4.0989485748       -0.9596425772
 H         -4.0269664209        4.3766052374       -1.2487307483
 H         -2.3772409450        4.9707377674       -1.1287114826
 C         -2.5066962956        2.9917704868       -1.8863970911
 H         -2.3713415891        3.4192500810       -2.8832984058
 H         -1.5283958362        2.6439303088       -1.5443293202
 C         -3.4259213170        1.7725281503       -2.0325460286
 H         -4.4359358337        2.1001573536       -2.2865311088
 H         -3.0418334166        1.1656286725       -2.8575594963
 H         -4.1938779949        3.1560343769        2.1910088188
 H         -4.9662980446        4.3309638000        1.1190502908
 H         -5.4544770478        2.6340688183       -0.5310805712
 H         -5.9474330281        2.0038101744        1.0523072364
 O         -4.2181402506        0.2848436402        1.3367540849
 C         -3.4102808112       -0.8398506306        1.3868930467
 O         -3.4764042664       -1.4685728614        2.4629432396
 H         -0.2144630745       -0.4612461609        1.3626780301
 C          0.3104991098       -1.0097798925        0.5882744566
 C         -0.3391864958       -2.0606862365       -0.0491845145
 C          0.3457689917       -2.7600030798       -1.0330315918
 C          1.6387125652       -2.4019256716       -1.3742303543
 C          2.2735861396       -1.3448323828       -0.7497459669
 C          1.5998920256       -0.6406981573        0.2400571679
 N          2.2297016101        0.4490528347        0.8685884892
 S          3.7625513249        0.2117591591        1.5119495304
 O          3.9535976675       -1.1578358374        1.9307606937
 O          3.9010206538        1.2217812381        2.5387989657
 C          4.8604580986        0.5991705355        0.1654759795
 C          5.8168374540       -0.3161021486       -0.2282846432
 C          6.6680738628        0.0120576231       -1.2720942432
 C          6.5489459673        1.2430353738       -1.8988173123
 C          5.5844609129        2.1519534945       -1.4894644776
 C          4.7311545685        1.8307369872       -0.4460146655
 H          3.9703751682        2.5087596515       -0.0964988868
 H          5.4942225865        3.1079095820       -1.9797622214
 H          7.2116044308        1.4960160008       -2.7113293953
 H          7.4183288764       -0.6930033584       -1.5921060681
 H          5.8676617939       -1.2632554778        0.2846868102
 H          1.6400635093        0.9306230671        1.5318684274
 H          3.2763587269       -1.0578961393       -1.0211415620
 H          2.1567121693       -2.9500520713       -2.1463909221
 H         -0.1390108419       -3.5716201232       -1.5496996510
 C         -1.7455328647       -2.3864398388        0.3938734354
 H         -1.7083552751       -2.6053612410        1.4747578391
 C         -2.3194084636       -3.6268647969       -0.2746823887
 C         -3.7976034473       -3.7894981256       -0.4630047351
 C         -2.9076868974       -3.5962980880       -1.6520477694
 H         -2.7334079875       -4.4417694565       -2.3014845286
 H         -2.9274960880       -2.6477390183       -2.1640271782
 H         -4.2305237123       -4.7639910126       -0.2932562661
 H         -4.4346796232       -2.9713005299       -0.1591950322
 H         -1.7730158431       -4.5230862322        0.0032645042
 O         -1.8491961951       -0.5357521988       -1.8702982824
