  62
        -98.93589601
 C         -1.3206502656       -1.5510813799        0.1917083626
 C         -2.2620534566       -0.9582778586        1.0681493301
 C         -3.1996029982        0.0246319672        0.4907266105
 C         -3.0740882834        0.3472592358       -0.8093982411
 C         -3.9300594050        1.2810169842       -1.6239564113
 C         -3.6471838072        2.7684071149       -1.3544668033
 C         -3.3983922083        3.1221746526        0.1096189663
 H         -2.5916572471        2.4982292537        0.4988342888
 H         -3.0583914239        4.1602374410        0.1513740806
 C         -4.6198768238        3.0014527897        1.0175336749
 H         -4.3199761930        3.3292742584        2.0161779122
 H         -5.3969713925        3.6833574513        0.6643174925
 C         -5.2257053576        1.6027765931        1.1372218425
 H         -5.7793769419        1.3399077629        0.2399287508
 H         -5.9536733503        1.6322375499        1.9534469139
 C         -4.2277350176        0.5030251725        1.4869859582
 H         -4.7875578294       -0.3912692721        1.7878375448
 H         -3.6648202119        0.8012768017        2.3789702727
 H         -4.4857514900        3.3540116924       -1.7348676548
 H         -2.7589771049        3.0471687221       -1.9254211532
 H         -3.7103548773        1.0700920468       -2.6729907727
 H         -4.9783095144        1.0482913236       -1.4566166427
 O         -2.0764150730       -0.1605214641       -1.5856361272
 C         -1.1846737629       -1.1196013900       -1.1279747618
 O         -0.3504901468       -1.4752188354       -1.9790986440
 O         -2.3319579894       -1.2466383838        2.2936575158
 C         -0.4351141209       -2.6489791694        0.7531056555
 C          1.0054987785       -2.4246635978        0.3750232122
 C          1.6711947010       -3.1964158794       -0.5682855101
 C          2.9874202026       -2.9233340730       -0.8962465133
 C          3.6711647053       -1.8886220633       -0.2842855313
 C          3.0146625696       -1.1108178559        0.6605600612
 C          1.6926192988       -1.3807207692        0.9828841782
 H          1.1798113058       -0.7675110092        1.7140531106
 N          3.7147329430       -0.0585158833        1.2917090559
 S          4.1678702527        1.2489506534        0.3521286389
 O          4.8803056718        0.7710082461       -0.8036765895
 O          4.8939333319        2.1313448560        1.2365105884
 C          2.6404848181        2.0310702940       -0.1373078512
 C          1.8241988566        1.4016389462       -1.0564399170
 C          0.6203801800        1.9981277182       -1.3979350650
 C          0.2580726206        3.2052428369       -0.8207524265
 C          1.0872079316        3.8227346847        0.1031109736
 C          2.2881183192        3.2287233188        0.4537840629
 H          2.9654001626        3.6710675942        1.1665362810
 H          0.7993401281        4.7607798505        0.5498031839
 H         -0.6772560956        3.6679388223       -1.0922744403
 H         -0.0285970536        1.5040989815       -2.1044009086
 H          2.1230443587        0.4618238741       -1.4935681046
 H          3.2580983793        0.2809266223        2.1271130220
 H          4.6921396162       -1.6564432804       -0.5390429872
 H          3.4890320786       -3.5254238678       -1.6386824271
 H          1.1481683433       -3.9953795551       -1.0673363851
 H         -0.5212653576       -2.5369023530        1.8464814702
 C         -0.9184689520       -4.0545010080        0.4232489429
 C         -2.3827932016       -4.3628026733        0.3424928145
 C         -1.5376877416       -4.4122348358       -0.8932312625
 H         -1.3101955776       -5.3785961823       -1.3191099626
 H         -1.6503578088       -3.6295787747       -1.6272615619
 H         -2.7373183926       -5.2914436899        0.7636390079
 H         -3.0732083322       -3.5397480169        0.4567992795
 H         -0.2929459204       -4.8116871000        0.8862603175
