  62
        -98.93344960
 C         -2.4324296292       -0.3560899895        0.1178648497
 C         -3.5253564491       -0.3062315003        1.0108414998
 C         -4.7858321590        0.2612126605        0.4941873805
 C         -4.8214080090        0.7030320919       -0.7771217890
 C         -5.9916196289        1.2802300030       -1.5284808484
 C         -7.0030328892        0.2084853937       -1.9666803595
 C         -7.3378394793       -0.8340723374       -0.9032129906
 H         -7.9715189395       -1.5925867668       -1.3703019714
 H         -6.4188459994       -1.3304291780       -0.5863116112
 C         -8.0754611092       -0.3002867487        0.3223777500
 H         -9.0122177691        0.1623894019        0.0037664705
 H         -8.3263494093       -1.1593607293        0.9499320890
 C         -7.3047314889        0.7046507502        1.1808458411
 H         -7.8431282989        0.8043814693        2.1279891012
 H         -7.3010229788        1.6904929808        0.7236662622
 C         -5.8819993390        0.2814545996        1.5324770505
 H         -5.9039876592       -0.7243344309        1.9674960294
 H         -5.5136126588        0.9323409286        2.3349894012
 H         -6.5842045293       -0.3178908954       -2.8277840201
 H         -7.9172984691        0.7092677842       -2.2895641289
 H         -6.4748594888        2.0489243124       -0.9326147275
 H         -5.5842173389        1.7593231239       -2.4215114178
 O         -3.7370002391        0.6386978327       -1.6026414492
 C         -2.5243460691        0.1194926120       -1.1892908298
 O         -1.6302350692        0.1355899828       -2.0564620898
 O         -3.4581823692       -0.7203669416        2.2009579493
 C         -1.1135319793       -0.9284433203        0.5996356390
 C         -0.0183677891        0.1066805896        0.5105737801
 C         -0.2747049688        1.4047384592        0.9441952415
 C          0.7067749014        2.3754757490        0.8939245726
 C          1.9705291513        2.0740206793        0.4179082222
 C          2.2444381010        0.7791329097        0.0019081007
 C          1.2548406609       -0.1961457701        0.0540756697
 H          1.4837910106       -1.1979568798       -0.2748775314
 N          3.5281974910        0.4647718000       -0.4774822197
 S          4.8398962311        1.0884915588        0.3877580110
 O          4.5990964011        0.9584433673        1.8072841008
 O          5.1083897113        2.4234939493       -0.0851871576
 C          6.1482844409       -0.0096916709       -0.1213740003
 C          6.3960408507       -1.1460260817        0.6258383284
 C          7.3991338705       -2.0109296315        0.2180499674
 C          8.1318300705       -1.7279032003       -0.9250273923
 C          7.8718803007       -0.5833869995       -1.6640234710
 C          6.8705997509        0.2863122003       -1.2616143700
 H          6.6395344810        1.1914077809       -1.7986250290
 H          8.4461484807       -0.3653365886       -2.5499365808
 H          8.9128779404       -2.4020688601       -1.2392983231
 H          7.6058099804       -2.8996016022        0.7924146264
 H          5.8100708407       -1.3206287226        1.5140849582
 H          3.6391162908       -0.5233890498       -0.6593853708
 H          2.7475685414        2.8203924692        0.3748654930
 H          0.4878213816        3.3786992287        1.2287741437
 H         -1.2597613287        1.6451321389        1.3211730618
 H         -1.2698421293       -1.1625718414        1.6639291387
 C         -0.7996676095       -2.2124803495       -0.1402495525
 C         -0.0226896897       -3.3058810004        0.5290479463
 C         -1.4906087898       -3.4738367099        0.2801139262
 H         -1.8107572399       -4.1659972989       -0.4841012346
 H         -2.1641732097       -3.4111208407        1.1223240663
 H          0.6643257801       -3.8895051899       -0.0653875844
 H          0.3015531204       -3.1390124516        1.5452732965
 H         -0.6534235696       -2.0522385784       -1.2027690123
