  62
        -98.94660537
 C         -2.4912433934       -0.3520348876       -0.0257705312
 C         -2.2938435152       -1.4938279699       -0.8357246296
 C         -1.6136168029       -2.6228629364       -0.1944199357
 C         -1.2272258069       -2.5242408411        1.0907365660
 C         -0.4930015758       -3.5777122341        1.8748476358
 C          1.0244549827       -3.5561320177        1.6416697686
 C          1.4829043666       -4.1331188082        0.3012079125
 H          2.5611893046       -4.2886953736        0.3734514395
 H          1.0201974186       -5.1090472114        0.1473918964
 C          1.1984573972       -3.2253577618       -0.9032638291
 H          1.0145077667       -2.2086951290       -0.5482109386
 H          2.0833221512       -3.1893470321       -1.5437078206
 C          0.0282222303       -3.6737976684       -1.7791681364
 H          0.2699005025       -4.6282707959       -2.2531999288
 H         -0.1125835202       -2.9307723272       -2.5683997798
 C         -1.3033120032       -3.8265815778       -1.0335381874
 H         -2.1002412149       -3.9255342101       -1.7752268134
 H         -1.2873458028       -4.7239449979       -0.4153369425
 H          1.3713913425       -2.5227082152        1.7281184924
 H          1.4880411456       -4.1356431312        2.4438942049
 H         -0.6841707309       -3.3702171123        2.9299871543
 H         -0.8897844239       -4.5651066253        1.6356607015
 O         -1.4813649778       -1.4275530931        1.8524016424
 C         -2.0757136376       -0.3033803724        1.3055144172
 O         -2.2015421845        0.6515288363        2.0992230126
 O         -2.6600740194       -1.5607941059       -2.0415846531
 C         -3.0774713970        0.9031112157       -0.6462879631
 C         -2.0974385094        2.0400187635       -0.4824707344
 C         -2.4752563935        3.3400234401       -0.1735729192
 C         -1.5160215644        4.3185148988        0.0257087136
 C         -0.1690221892        4.0151207755       -0.0444744549
 C          0.2187237205        2.7204050010       -0.3695252036
 C         -0.7443313381        1.7618420385       -0.6308670224
 H         -0.4334699492        0.7623592767       -0.8941588943
 N          1.5828005613        2.3544719139       -0.4415692757
 S          2.0966323011        1.1200249805        0.6006280253
 O          1.2726502787       -0.0467219642        0.4403991984
 O          2.2196427366        1.6526247102        1.9433321852
 C          3.7198467953        0.8087171401       -0.0668239593
 C          3.8335372860       -0.0458960006       -1.1459191907
 C          5.0862924042       -0.2717395672       -1.6934001324
 C          6.1982820689        0.3603811586       -1.1570751640
 C          6.0687534299        1.2151240965       -0.0729837805
 C          4.8181887978        1.4444517530        0.4791034315
 H          4.6722280980        2.0901891198        1.3299832104
 H          6.9353729525        1.7024049554        0.3438508428
 H          7.1721120519        0.1827592550       -1.5852203313
 H          5.1897121717       -0.9381299480       -2.5345612641
 H          2.9425684459       -0.5204866991       -1.5238469268
 H          2.1850377343        3.1523314967       -0.2752276004
 H          0.5777088910        4.7692485655        0.1562136090
 H         -1.8223031816        5.3250789325        0.2679380851
 H         -3.5202219783        3.5851247182       -0.0733038334
 H         -3.1876943631        0.6801531226       -1.7184748250
 C         -4.4442234362        1.2034758211       -0.0670247227
 C         -5.4938224252        1.8741669348       -0.9010888830
 C         -5.6244577353        0.4216196554       -0.5581568063
 H         -6.3774262791        0.1224111466        0.1553185274
 H         -5.4433980507       -0.3078208986       -1.3339911653
 H         -6.1628040001        2.5733979555       -0.4223751197
 H         -5.2360592055        2.1318949233       -1.9171552337
 H         -4.4010023768        1.4353199389        0.9916640708
