  62
        -98.93241778
 C          1.9914237421        1.6383089882       -0.2463814061
 C          2.3847271192        0.5919620589       -1.1149580760
 C          3.6351772754       -0.1155863516       -0.7608184952
 C          4.3364403518        0.2574135059        0.3240186653
 C          5.6418549098       -0.2578006169        0.8937520132
 C          6.1944919675       -1.6181403233        0.4750998352
 C          5.3461894250       -2.8161128698        0.9003587810
 H          5.3922585532       -2.9076269692        1.9884250613
 H          5.7907720780       -3.7169145514        0.4716188646
 C          3.8718865358       -2.7568396360        0.5064791222
 H          3.3847268731       -1.9281813439        1.0252200470
 H          3.3938273102       -3.6762977857        0.8559055064
 C          3.5973315195       -2.6334561050       -0.9915452774
 H          2.5213250913       -2.7666678849       -1.1400766272
 H          4.1087636280       -3.4359703549       -1.5269555964
 C          3.9883500101       -1.2882045717       -1.6292515635
 H          3.4113607533       -1.1737130844       -2.5517389677
 H          5.0419975958       -1.2664487128       -1.8969219061
 H          7.1701716408       -1.7180711214        0.9585421563
 H          6.3706177596       -1.6409400372       -0.5962738043
 H          5.5140754033       -0.2433950298        1.9806787783
 H          6.3925334023        0.5055583674        0.6609977374
 O          3.9373411757        1.3018375844        1.1082509541
 C          2.7628908745        1.9874662882        0.8642552288
 O          2.5180300503        2.8889689138        1.6912480451
 O          1.7553906471        0.2468368381       -2.1462433752
 C          0.6978785837        2.4255707020       -0.3854291772
 C         -0.3639234432        1.8116589004        0.4928081620
 C         -1.0955601004        2.6031384494        1.3717606156
 C         -2.0443329548        2.0429761834        2.2081013703
 C         -2.2942870864        0.6834098043        2.1673735300
 C         -1.5727524390       -0.1164632517        1.2889653823
 C         -0.6090103629        0.4449092189        0.4640230953
 H         -0.0518694083       -0.1938757158       -0.2046736627
 N         -1.8186035036       -1.5063380379        1.2030869272
 S         -2.6154326124       -2.0042849464       -0.1860225130
 O         -2.8753031618       -3.4143434083        0.0008980610
 O         -1.8511085253       -1.6286807324       -1.3444272606
 C         -4.1529480217       -1.0980394460       -0.1393984449
 C         -5.2608063259       -1.6867010208        0.4386105576
 C         -6.4317970632       -0.9533927308        0.5440958889
 C         -6.4708659659        0.3536803477        0.0824278064
 C         -5.3492551208        0.9315982261       -0.4924014545
 C         -4.1762877046        0.2018050460       -0.6047187854
 H         -3.2870770563        0.6163355773       -1.0516443499
 H         -5.3794527255        1.9472535630       -0.8525843287
 H         -7.3810551750        0.9257369845        0.1688836784
 H         -7.3065394251       -1.4014731306        0.9872363852
 H         -5.1847349007       -2.7066242983        0.7797881309
 H         -2.3094289337       -1.8753226119        2.0068222349
 H         -3.0349428887        0.2392143432        2.8156164689
 H         -2.5952239771        2.6690316030        2.8927302141
 H         -0.8969510800        3.6639505843        1.4107715074
 H          0.9199438810        3.4231084607        0.0282574963
 C          0.2356448136        2.6387027128       -1.8181707671
 C         -0.7858066858        1.7864783666       -2.5013847957
 C         -1.1383286272        3.1813105281       -2.0862459140
 H         -1.2570504721        3.9321301628       -2.8526685845
 H         -1.7970805159        3.3029781066       -1.2392410663
 H         -0.6321850003        1.5764726753       -3.5491677060
 H         -1.1993810580        0.9456680762       -1.9664679438
 H          1.0409564094        3.0103099465       -2.4439461821
