  62
        -98.93912213
 C         -2.4227156286       -1.2022382041       -0.0672242763
 C         -3.5265333720       -0.9425738571        0.7805503613
 C         -4.4990494302        0.0586427442        0.3109382683
 C         -4.2841407970        0.6726015719       -0.8655353673
 C         -5.1146848580        1.7545563745       -1.4987041365
 C         -4.5745379227        3.1453662016       -1.1246907292
 C         -5.1262936907        3.7210905659        0.1790103753
 H         -4.5713135885        4.6384026194        0.3886977757
 H         -6.1729280797        3.9969985306        0.0341952772
 C         -5.0273820802        2.7974482830        1.3958874017
 H         -4.0503653628        2.3105273005        1.4087041080
 H         -5.0904356198        3.4175239707        2.2922143950
 C         -6.1407275243        1.7404357320        1.4435840358
 H         -6.9107883791        2.0015111645        0.7179779204
 H         -6.6193083092        1.7642532222        2.4247548322
 C         -5.6811311125        0.2936081665        1.2116473026
 H         -5.3919310392       -0.1533327802        2.1679150746
 H         -6.5261582567       -0.2931049582        0.8362795245
 H         -3.4847788497        3.0774688803       -1.0662845131
 H         -4.8142260728        3.8424902577       -1.9302911771
 H         -5.0223105973        1.6249954021       -2.5790644207
 H         -6.1594348896        1.6507972831       -1.2212363671
 O         -3.1994755324        0.4057807725       -1.6438341611
 C         -2.2454018602       -0.5272360895       -1.2744293195
 O         -1.3199245284       -0.6606543462       -2.0989693940
 H          0.8329058668       -1.9409901040       -1.1949883273
 C          0.9306711897       -1.4471782617       -0.2413396046
 C         -0.1027661293       -1.5130288740        0.6790504515
 C          0.0376178298       -0.8367889615        1.8883058435
 C          1.1863905518       -0.1214789593        2.1673297134
 C          2.2165297995       -0.0569546381        1.2443706753
 C          2.0775537492       -0.7107436786        0.0282815030
 N          3.1116023207       -0.6489632484       -0.9202727049
 S          3.8586623029        0.8242192508       -1.2115175075
 O          2.9739270503        1.9401527685       -0.9679896082
 O          4.4023429684        0.7129972544       -2.5477951904
 C          5.2058169759        0.8443755918       -0.0448653986
 C          5.3979218627        1.9446347575        0.7674674216
 C          6.4608299372        1.9441487619        1.6576141498
 C          7.3092020178        0.8494316431        1.7187149462
 C          7.1044063084       -0.2468943686        0.8941612235
 C          6.0446978168       -0.2520477694        0.0014426403
 H          5.8528838306       -1.0825992822       -0.6569775369
 H          7.7658766975       -1.0967277108        0.9446618513
 H          8.1345698289        0.8506920466        2.4130256372
 H          6.6211991724        2.7960385205        2.2987861845
 H          4.7090425873        2.7709019738        0.6897211664
 H          2.8869877253       -1.1133848845       -1.7885746454
 H          3.1103546389        0.5087832628        1.4503206436
 H          1.2829069474        0.3938571214        3.1108971152
 H         -0.7743666680       -0.8712803105        2.6013863859
 C         -1.3971712316       -2.2291089351        0.3847299791
 H         -1.7874103966       -2.6306791775        1.3295591090
 C         -1.2612256577       -3.3648528318       -0.6073157313
 C         -0.5803542818       -4.6310359042       -0.1839249116
 C         -2.0625444497       -4.6140285595       -0.4028965195
 H         -2.4628562934       -5.1155325675       -1.2712987297
 H         -2.7088198340       -4.6564244759        0.4614259808
 H          0.0393404993       -5.1484828715       -0.9001953857
 H         -0.2184623870       -4.6837473515        0.8315992716
 H         -1.1241518259       -3.0296770468       -1.6284909286
 O         -3.6924612597       -1.5234775603        1.8864885333
