  62
        -98.93817929
 C         -1.6509897846       -1.4522258428        0.2800109856
 C         -1.8036782851       -0.2101009808        0.9466816063
 C         -3.0818551889        0.5017512695        0.7702174407
 C         -4.0411108433       -0.0561807028        0.0083342572
 C         -5.4617501456        0.3736780495       -0.2951208165
 C         -5.9605977835        1.7571376812        0.1112037282
 C         -5.3581757403        2.9077821071       -0.6956384244
 H         -5.7799591916        2.8790765615       -1.7034859520
 H         -5.6628591147        3.8498320108       -0.2349722252
 C         -3.8384022619        2.8867353682       -0.8343384236
 H         -3.5495879690        3.7218349942       -1.4781136000
 H         -3.5287367959        1.9694579683       -1.3389882674
 C         -3.0603522328        3.0200531106        0.4723103224
 H         -2.0037940068        3.1195933914        0.2106546803
 H         -3.3652548413        3.9311760437        0.9911543835
 C         -3.1918526467        1.8385682953        1.4469816131
 H         -2.3611053078        1.8885977382        2.1576305571
 H         -4.1122904030        1.9060457471        2.0221960285
 H         -7.0405637720        1.7636679191       -0.0592708906
 H         -5.8110439750        1.9106325075        1.1759940143
 H         -6.0998339373       -0.3791137117        0.1809031166
 H         -5.5930524998        0.2464403896       -1.3744981987
 O         -3.8434333831       -1.2460896817       -0.6277756959
 C         -2.6571664180       -1.9578527860       -0.5413795109
 O         -2.6530388726       -2.9918995061       -1.2374587278
 O         -0.9058927871        0.2814618174        1.6820200241
 C         -0.3366066014       -2.1796681551        0.4980314968
 C          0.6787383277       -1.8356575695       -0.5658421032
 C          0.3957462453       -1.9913840119       -1.9185430092
 C          1.3490252920       -1.6783159058       -2.8700282097
 C          2.5919547585       -1.1983997487       -2.4949447629
 C          2.8874941281       -1.0462077683       -1.1451037734
 C          1.9311183611       -1.3717878613       -0.1925811793
 H          2.1774115947       -1.2612444059        0.8518027117
 N          4.1506761954       -0.5938575306       -0.7394742552
 S          4.3515960650        0.4297353417        0.5668322578
 O          5.7238071772        0.8729525005        0.4559313011
 O          4.0011974399       -0.2515823368        1.7866588142
 C          3.2558280756        1.8028084062        0.2639496120
 C          1.9916743594        1.8248767779        0.8151486701
 C          1.1551178977        2.8910330998        0.5249179815
 C          1.5882833944        3.9094661858       -0.3081439737
 C          2.8639152953        3.8741047791       -0.8526878592
 C          3.7050669720        2.8118992515       -0.5675289783
 H          4.7084390564        2.7543989215       -0.9575377252
 H          3.2022081291        4.6697597929       -1.4968160328
 H          0.9308196378        4.7354657983       -0.5302092962
 H          0.1666987408        2.8997190206        0.9564591749
 H          1.6570432065        1.0281202560        1.4588255330
 H          4.7723745099       -0.3469202455       -1.4953278010
 H          3.3321662204       -0.9519062850       -3.2407513283
 H          1.1201452316       -1.8044872996       -3.9175277507
 H         -0.5739826759       -2.3627977359       -2.2135990017
 H          0.0504084327       -1.7997074746        1.4541248651
 C         -0.4748441178       -3.6856668402        0.6097476365
 C          0.5985682418       -4.4598066013        1.3117074308
 C         -0.7505228349       -4.3032839698        1.9459838524
 H         -1.4047952459       -5.1608822381        1.9907676330
 H         -0.8402417330       -3.6415740851        2.7954439397
 H          0.8742482828       -5.4273070871        0.9211617123
 H          1.4248048362       -3.9049380204        1.7312780182
 H         -0.9414514858       -4.1402637468       -0.2541909202
