  62
        -98.94074041
 C         -2.0224158765       -1.3237771389        0.3782731586
 C         -2.5060716706       -0.6317972746       -0.7600112541
 C         -3.7308987850        0.1595448015       -0.5555525005
 C         -4.2998702739        0.2026941438        0.6619528398
 C         -5.5171614957        1.0061691603        1.0151821403
 C         -5.1328019825        2.4039168770        1.5201562998
 C         -4.1340631693        3.1325373955        0.6206107354
 H         -3.9599510349        4.1178876165        1.0586089470
 H         -3.1797502761        2.6005496100        0.6401216906
 C         -4.5917448496        3.2943074228       -0.8357396092
 H         -4.3818701447        4.3168473055       -1.1565984016
 H         -5.6705512146        3.1488588489       -0.9031165278
 C         -3.8919722289        2.3639611894       -1.8285169950
 H         -2.8085874835        2.4377116068       -1.7007880927
 H         -4.1247166076        2.7096361462       -2.8392757968
 C         -4.2870822464        0.8839271863       -1.7489565681
 H         -5.3744398097        0.7906378224       -1.7855833524
 H         -3.8680981712        0.3830334077       -2.6266543797
 H         -4.6890621001        2.3038478880        2.5135159543
 H         -6.0424767438        2.9998106391        1.6134103476
 H         -6.0591935629        0.4813605706        1.8037994333
 H         -6.1583715538        1.0881826977        0.1397812850
 O         -3.7894291357       -0.4490031284        1.7381010193
 C         -2.6342652530       -1.2063962499        1.6287043722
 O         -2.2513129933       -1.7111946167        2.7034738511
 O         -1.9578177625       -0.6636555893       -1.8907578236
 C         -0.7619190427       -2.1708507322        0.3209970146
 C          0.3257241911       -1.4210220201       -0.4088511978
 C          0.9511877073       -1.8863656465       -1.5570917939
 C          1.9332962136       -1.1308883258       -2.1746184117
 C          2.3188741829        0.0924565349       -1.6597760868
 C          1.7099967690        0.5604064138       -0.5016018665
 C          0.7300037064       -0.1993653379        0.1174725749
 H          0.2500566045        0.1698583240        1.0163658179
 N          2.1067000316        1.7946829081        0.0397574373
 S          3.7430011211        2.1373648408        0.1039463572
 O          3.8967312371        3.0354212589        1.2274145007
 O          4.1840774900        2.6467680564       -1.1706462471
 C          4.5417298075        0.5763703856        0.4363302402
 C          4.1911032153       -0.1042895230        1.5855042073
 C          4.7798116321       -1.3313198338        1.8437435846
 C          5.7056496248       -1.8538318898        0.9534240545
 C          6.0522587264       -1.1551817898       -0.1923177234
 C          5.4644309882        0.0715047542       -0.4569157274
 H          5.7016980792        0.6464819788       -1.3371858780
 H          6.7743125794       -1.5625323887       -0.8813893966
 H          6.1593953410       -2.8109972125        1.1562754151
 H          4.5114517118       -1.8755466570        2.7350798436
 H          3.4716100801        0.3302534274        2.2611713046
 H          1.6423789474        2.0380427644        0.9017302112
 H          3.0662178450        0.7008198686       -2.1428452322
 H          2.4001771205       -1.4971380765       -3.0760401526
 H          0.6489108904       -2.8263931268       -1.9875097792
 H         -0.4466302648       -2.2758476028        1.3724470989
 C         -0.9802670345       -3.5821844491       -0.2034959016
 C         -2.3012850529       -4.2707584914       -0.0374076414
 C         -1.8292086022       -3.8747392048       -1.4025267779
 H         -1.5089688560       -4.6549221342       -2.0776963514
 H         -2.3062344231       -3.0417609733       -1.8934164177
 H         -2.3042013489       -5.3180221547        0.2252240091
 H         -3.1073759362       -3.7073355782        0.4102971295
 H         -0.0990168373       -4.2016668929       -0.0685546566
