  62
        -98.93789904
 C         -2.6129883328       -0.1725672028       -0.0535177509
 C         -2.3911396023       -1.2579034988       -0.9294465396
 C         -1.7813856330       -2.4656873867       -0.3488355719
 C         -1.4435783901       -2.4707522316        0.9544156912
 C         -0.8030037040       -3.5396387517        1.8151350813
 C         -0.1769933700       -4.7805498955        1.1845417000
 C          1.0967141238       -4.5145801565        0.3824306691
 H          1.8903453511       -4.2346747107        1.0799744774
 H          1.3926201127       -5.4457273317       -0.1064525694
 C          1.0031490009       -3.4097468155       -0.6676348524
 H          1.9802911169       -3.3342868160       -1.1547083386
 H          0.8136993973       -2.4500644508       -0.1794885131
 C         -0.0357660854       -3.6374196016       -1.7641915959
 H          0.1024570626       -2.8553159566       -2.5161887535
 H          0.1450781533       -4.6005398359       -2.2462719253
 C         -1.5039082992       -3.5861538721       -1.3103708533
 H         -2.1216509043       -3.3913584901       -2.1922472724
 H         -1.8220071066       -4.5378305646       -0.8920589606
 H         -0.9099672894       -5.3056035480        0.5790374326
 H          0.0883295432       -5.4473537312        2.0096008255
 H         -0.0445066191       -3.0172660876        2.4077960493
 H         -1.5792278374       -3.8596858472        2.5192810442
 O         -1.7038154391       -1.4069591013        1.7693270479
 C         -2.2430374566       -0.2282744531        1.2898319131
 O         -2.3579099164        0.6712036106        2.1451594357
 H         -0.5803584966        0.7704253493       -1.3051825718
 C         -0.7075244595        1.7406754407       -0.8396912086
 C         -1.9787207992        2.1454926450       -0.4506891184
 C         -2.1170981385        3.3949331700        0.1375950138
 C         -1.0053120116        4.1880503473        0.3724282422
 C          0.2644566000        3.7505720259        0.0406807706
 C          0.4053493675        2.5178444937       -0.5787498203
 N          1.7116364722        2.0122870973       -0.8540055178
 S          2.2227314337        1.1004516830        0.4860317562
 O          1.4480439426       -0.1178058714        0.5916900454
 O          2.2210642334        1.9707148940        1.6342059544
 C          3.9013445386        0.7173242500        0.0209639720
 C          4.2281650722       -0.5631384935       -0.3798804403
 C          5.5318583435       -0.8317634437       -0.7677442593
 C          6.4783337001        0.1812276194       -0.7528800355
 C          6.1337355519        1.4630812761       -0.3495455637
 C          4.8331689150        1.7373216186        0.0413752453
 H          4.5191938652        2.7140455251        0.3694458001
 H          6.8730348568        2.2475664255       -0.3385265338
 H          7.4915696797       -0.0303369196       -1.0559252575
 H          5.8019321707       -1.8278780621       -1.0796212041
 H          3.4584547312       -1.3187324704       -0.3709441852
 H          1.6831577649        1.3709387783       -1.6387960835
 H          1.1413478628        4.3333440558        0.2693570810
 H         -1.1293442927        5.1497088149        0.8468124060
 H         -3.0935126029        3.7377793397        0.4394427959
 C         -3.1006681128        1.1499922189       -0.6228185867
 H         -3.2543803834        0.9716579341       -1.6973679598
 C         -4.4090270657        1.5840785045       -0.0021662863
 C         -5.3343072563        2.4887402889       -0.7588648405
 C         -5.6911790158        1.0470978908       -0.5616751845
 H         -6.4875162093        0.7995628425        0.1237846772
 H         -5.6214302705        0.3805998027       -1.4088710717
 H         -5.0281454904        2.8041530608       -1.7447387245
 H         -5.8904275693        3.2329579496       -0.2093803728
 H         -4.3402115917        1.6996821092        1.0734869615
 O         -2.6779887705       -1.2168162083       -2.1583317366
