  62
        -98.93220250
 C          2.5838186317        1.1953645533        0.1764953677
 C          3.0532950813        0.2392114449        1.1096218022
 C          4.2861782818       -0.4966967845        0.7719148958
 C          4.9017600041       -0.2185577133       -0.3921216690
 C          6.1425507456       -0.8469804134       -0.9692672591
 C          5.8851864001       -2.2471561966       -1.5478990534
 C          5.0299356888       -3.1568973401       -0.6702093689
 H          4.0645722363       -2.6793728028       -0.4926912128
 H          4.8387600798       -4.0751556560       -1.2317686777
 C          5.6566035917       -3.5487087559        0.6658969400
 H          6.6106613803       -4.0477470260        0.4820438711
 H          4.9880216948       -4.2741567597        1.1364105498
 C          5.8877025031       -2.4065093982        1.6580114335
 H          6.7722114648       -1.8312643947        1.3978876447
 H          6.0885082636       -2.8587685912        2.6336722473
 C          4.6933387187       -1.4764585260        1.8460265929
 H          3.8016741963       -2.0752242588        2.0644157039
 H          4.8594506558       -0.8719639639        2.7459948815
 H          6.8484769707       -2.7227426047       -1.7401664473
 H          5.3705815429       -2.1277843698       -2.5044333693
 H          6.9294142469       -0.8759505800       -0.2213604416
 H          6.4764950436       -0.1928748605       -1.7778119319
 O          4.4145486805        0.7089989417       -1.2627703013
 C          3.2566815895        1.4314910201       -1.0226759849
 O          2.9627499746        2.2235346981       -1.9357801800
 O          2.4638232632        0.0066881946        2.2008859602
 C          1.3230009822        1.9510758241        0.5541501228
 C          0.0916917261        1.2657562609        0.0189462777
 C         -0.0205123062        0.9189788641       -1.3238681192
 C         -1.1670278343        0.3045867968       -1.7939855593
 C         -2.2186822236        0.0188265065       -0.9404806612
 C         -2.1164969299        0.3576665458        0.4017023389
 C         -0.9650536412        0.9787022843        0.8703819639
 H         -0.8842216816        1.2306947357        1.9194141449
 N         -3.1709152133        0.0538847468        1.2763656782
 S         -4.7397303968        0.4403611316        0.8245562572
 O         -4.7671222305        1.5859580133       -0.0542984640
 O         -5.4671923201        0.5655668343        2.0683548887
 C         -5.3093051956       -1.0090766593       -0.0377668063
 C         -5.8606599725       -0.8866758259       -1.2980848458
 C         -6.3129438683       -2.0262039690       -1.9451937262
 C         -6.2075712767       -3.2607334505       -1.3231389415
 C         -5.6530263446       -3.3662354555       -0.0561342222
 C         -5.2000270246       -2.2310301568        0.5966224290
 H         -4.7654304934       -2.2712064709        1.5815146862
 H         -5.5722139611       -4.3281986802        0.4239964621
 H         -6.5595790141       -4.1460923803       -1.8286954130
 H         -6.7442978602       -1.9463676486       -2.9301106241
 H         -5.9170255183        0.0930237173       -1.7454746737
 H         -2.9944437264        0.3025717413        2.2387894123
 H         -3.1127202313       -0.4599671006       -1.3050789793
 H         -1.2426687167        0.0433728047       -2.8387095329
 H          0.7970794543        1.1427308849       -1.9925858047
 H          1.2815645519        1.8849687510        1.6533726860
 C          1.3791608627        3.4301000017        0.1973221471
 C          0.5627807412        4.0607246861       -0.8860783060
 C          0.2323192094        4.3315687149        0.5491612194
 H          0.4453592219        5.3074614383        0.9583828962
 H         -0.6598257770        3.8707139587        0.9475919727
 H          1.0280570560        4.8386397608       -1.4716653892
 H         -0.1091836621        3.4360701090       -1.4528318487
 H          2.3751103920        3.8378052558        0.3395823645
