  62
        -98.94123928
 C          2.0157406930        1.2090060609        0.1162976096
 C          2.8097092351        0.6559646885        1.1533578788
 C          4.0071690310       -0.0788661924        0.7321294179
 C          4.2780708039       -0.2147210532       -0.5784953753
 C          5.4773895126       -0.9058958700       -1.1684583400
 C          5.3217047737       -2.4269617264       -1.3007696254
 C          5.3784742572       -3.2033457802        0.0154712857
 H          5.4740536964       -4.2605789831       -0.2399006822
 H          6.2761822315       -2.9190483412        0.5653987684
 C          4.1446449471       -3.0216780482        0.9106333725
 H          3.3230413503       -2.6120358259        0.3178619991
 H          3.8161163919       -3.9958697537        1.2802362625
 C          4.3721223407       -2.1271785267        2.1294766546
 H          3.4274508086       -2.0402866385        2.6724792735
 H          5.1004534974       -2.5950118147        2.7954986475
 C          4.8571156750       -0.7108941710        1.7929296620
 H          4.7760740017       -0.0983237626        2.6942621069
 H          5.9005389155       -0.7356914581        1.4792794061
 H          4.3779968517       -2.6389278980       -1.8090697808
 H          6.1310867047       -2.7825390210       -1.9425642188
 H          5.6167260929       -0.4869081918       -2.1673950920
 H          6.3608275901       -0.6802538949       -0.5703565927
 O          3.4711432232        0.2939217863       -1.5452158544
 C          2.3108513830        0.9950281009       -1.2314778385
 O          1.6608352423        1.3566369352       -2.2284907809
 O          2.5282455806        0.7703143414        2.3763756112
 C          0.7708261381        1.9785781945        0.5212297308
 C         -0.4223545777        1.4792491872       -0.2534644721
 C         -1.1661302183        2.2685244030       -1.1195648460
 C         -2.2373998821        1.7303211646       -1.8118119069
 C         -2.5954684945        0.4052228581       -1.6500305726
 C         -1.8664477712       -0.3901489699       -0.7742207278
 C         -0.7962220152        0.1515723346       -0.0796470788
 H         -0.2226691421       -0.4717533285        0.5959057085
 N         -2.2302941633       -1.7342658221       -0.5908999448
 S         -3.8549026934       -2.1061885740       -0.4504475557
 O         -3.8961980953       -3.3176792122        0.3385988641
 O         -4.4513532740       -2.1896945010       -1.7603573998
 C         -4.5748631356       -0.7463195347        0.4535478964
 C         -4.0860249399       -0.4711710378        1.7153907206
 C         -4.6130153011        0.5988637102        2.4197661951
 C         -5.6155109986        1.3715958989        1.8534538797
 C         -6.1000283383        1.0787119453        0.5883668974
 C         -5.5748355013        0.0108109854       -0.1216732920
 H         -5.9197401125       -0.2500358283       -1.1089716607
 H         -6.8810721672        1.6796659519        0.1514019003
 H         -6.0210003206        2.2060847260        2.4033770472
 H         -4.2375855274        0.8273562872        3.4043622296
 H         -3.3097463419       -1.0939038878        2.1306274370
 H         -1.6757420585       -2.2246176886        0.0944445973
 H         -3.4129819730       -0.0318285439       -2.2000567570
 H         -2.7975379655        2.3508900356       -2.4943665732
 H         -0.8888699711        3.2975469164       -1.2764717821
 H          0.6216984759        1.7082215304        1.5802588602
 C          0.9269163014        3.4910934038        0.4851182640
 C          2.2608904894        4.1324633015        0.7204684281
 C          1.6212940934        4.2083661411       -0.6319272265
 H          1.2219058642        5.1586371708       -0.9552980961
 H          2.0313618551        3.6136282867       -1.4326319675
 H          2.3019693353        5.0271106878        1.3234635197
 H          3.1141642972        3.4816216200        0.8461883045
 H          0.0708443695        3.9932407301        0.9251805372
