  62
        -98.93334204
 C         -2.4192569371       -1.0155180454        0.3314525979
 C         -2.7212166811        0.2001524394        0.9969018624
 C         -4.0613315339        0.7727493766        0.7846112327
 C         -4.9289522502        0.1310093219       -0.0196764180
 C         -6.3640432127        0.4392868409       -0.3928144256
 C         -6.9745575170        1.8036041333       -0.0840854981
 C         -6.3893571216        2.9622405830       -0.8911673740
 H         -6.7011708716        2.8513514341       -1.9327176493
 H         -6.8171908187        3.8931878202       -0.5130429986
 C         -4.8667883830        3.0736948577       -0.8777755699
 H         -4.5883655245        3.9267574610       -1.5025134925
 H         -4.4284100114        2.1844411268       -1.3355065267
 C         -4.2376848347        3.2831381460        0.4981937254
 H         -3.1758118378        3.4960134890        0.3462827529
 H         -4.6873295624        4.1534304509        0.9803582870
 C         -4.3344115038        2.0861865304        1.4594160904
 H         -3.5606795471        2.2038818015        2.2238602083
 H         -5.2949961959        2.0644401700        1.9685653732
 H         -8.0368618322        1.7325937695       -0.3328806999
 H         -6.9143040192        2.0102208192        0.9803421727
 H         -6.9684038006       -0.3301540350        0.1000469277
 H         -6.4400623994        0.2474686344       -1.4677701119
 O         -4.5976080765       -1.0398843323       -0.6343769735
 C         -3.3554607081       -1.6370534908       -0.4931647782
 O         -3.2413476653       -2.6922723612       -1.1470604128
 O         -1.9022577292        0.7833243322        1.7586606440
 C         -1.0360925024       -1.5953036574        0.5660734718
 C         -0.0799023386       -1.2672981031       -0.5563212104
 C         -0.2921188168       -1.7241191065       -1.8532756555
 C          0.6226480901       -1.4418858869       -2.8509741251
 C          1.7718713145       -0.7222479668       -2.5740472039
 C          1.9888438431       -0.2551455187       -1.2832834968
 C          1.0586472623       -0.5219178700       -0.2881429882
 H          1.2358380029       -0.1424277635        0.7079073330
 N          3.1342454918        0.4939409216       -0.9709362722
 S          3.8371009656        0.2694043961        0.5488262235
 O          3.8319205667       -1.1347768974        0.8915949229
 O          3.2052607939        1.1589204609        1.4907906756
 C          5.5024520496        0.8193262944        0.2254652505
 C          6.4676681367       -0.1126293452       -0.1069383605
 C          7.7534820260        0.3240363024       -0.3845151109
 C          8.0499987587        1.6776821115       -0.3281601917
 C          7.0708594478        2.6009841574        0.0078080433
 C          5.7833407086        2.1712257740        0.2875904579
 H          4.9926381446        2.8497130217        0.5628920426
 H          7.3058506756        3.6521153906        0.0541798411
 H          9.0514710615        2.0149548188       -0.5438445012
 H          8.5176980009       -0.3913879228       -0.6422267576
 H          6.1935185021       -1.1551741864       -0.1285871784
 H          3.8226357234        0.4908281701       -1.7111395478
 H          2.4917017717       -0.5175085257       -3.3520512514
 H          0.4459615210       -1.8000927841       -3.8540675155
 H         -1.1809665788       -2.2968034471       -2.0687544071
 H         -0.6627062736       -1.0902386613        1.4681316919
 C         -1.0345600450       -3.0908215153        0.8228061646
 C          0.1831943549       -3.7109711376        1.4375878499
 C         -1.0829913216       -3.5966570761        2.2314581406
 H         -1.6461261612       -4.4946435399        2.4369486620
 H         -1.1225580519       -2.8643616297        3.0250059860
 H          0.4894911084       -4.6883803934        1.0975020242
 H          1.0069847835       -3.0569183162        1.6862226327
 H         -1.5639629247       -3.6579517934        0.0684495261
