  62
        -98.94184983
 C         -2.2531339521       -0.7329112634        0.1258515824
 C         -3.4348212404       -1.0009312630        0.8670385412
 C         -4.3721675735        0.1155579532        1.0246913835
 C         -4.0521722937        1.3263405700        0.5348113910
 C         -4.8882315789        2.5730467190        0.6371632931
 C         -5.9689817795        2.6894893122       -0.4466497803
 C         -7.1577652050        1.7410771022       -0.2848429470
 H         -7.9322647057        2.0780566056       -0.9766416786
 H         -7.5600191367        1.8341396968        0.7243567970
 C         -6.8388254287        0.2688291050       -0.5805837220
 H         -5.9019510788        0.2051463770       -1.1391980501
 H         -7.6196005323       -0.1521413295       -1.2180168908
 C         -6.7380661682       -0.6193602072        0.6597170350
 H         -6.4739046112       -1.6299384323        0.3374385554
 H         -7.7101019679       -0.6680654269        1.1551992434
 C         -5.6909238744       -0.1585229675        1.6821897984
 H         -5.5402650438       -0.9627168232        2.4064205930
 H         -6.0440596838        0.7269382351        2.2101659408
 H         -5.5038267934        2.5286263286       -1.4221347779
 H         -6.3437921600        3.7153906036       -0.4233357076
 H         -4.2020755663        3.4163678336        0.5322911432
 H         -5.3521580860        2.6231845802        1.6226906792
 O         -2.8820010688        1.5622284866       -0.1130169775
 C         -1.9643039947        0.5449314169       -0.3574253425
 O         -0.9674541232        0.9252843423       -1.0003020877
 O         -3.6929376970       -2.1237372158        1.3753200589
 C         -1.2852855272       -1.8888525398       -0.0644333299
 C          0.1028661877       -1.4737382847        0.3471249744
 C          0.4376895032       -1.4494194124        1.6976610585
 C          1.6887562206       -1.0272479603        2.1059927026
 C          2.6266977502       -0.6089692327        1.1780494961
 C          2.2937631149       -0.6083804818       -0.1694031914
 C          1.0462408201       -1.0605672944       -0.5793859088
 H          0.7930585953       -1.0465226534       -1.6280188605
 N          3.2315143096       -0.1741796944       -1.1204093170
 S          4.1425719437        1.1978887466       -0.8024637409
 O          3.4568605409        2.1260792859        0.0659451750
 O          4.5315768798        1.6982310872       -2.1034668053
 C          5.5886062971        0.5521762138        0.0162590036
 C          6.2869861285       -0.4678335051       -0.5999316929
 C          7.4191038962       -0.9732919415        0.0187825616
 C          7.8340911243       -0.4516919559        1.2350682101
 C          7.1249527470        0.5749434926        1.8391808642
 C          5.9911063464        1.0844606360        1.2254109939
 H          5.4056822273        1.8793031348        1.6601361185
 H          7.4490625855        0.9804477836        2.7842024934
 H          8.7154715778       -0.8470266955        1.7148295989
 H          7.9732811783       -1.7714685530       -0.4482135778
 H          5.9334490595       -0.8430451439       -1.5456201158
 H          2.8630336404       -0.1452692809       -2.0603321003
 H          3.5981783637       -0.2626033851        1.4903933959
 H          1.9369110479       -1.0181910353        3.1565123132
 H         -0.3008408299       -1.7566212809        2.4253129018
 H         -1.6373852900       -2.6526006008        0.6476714538
 C         -1.3281310733       -2.5332295179       -1.4423680040
 C         -2.6362685937       -2.7246815989       -2.1484579459
 C         -1.6191107055       -1.7735424298       -2.7003539539
 H         -1.0896375930       -2.0565561055       -3.5989054523
 H         -1.8053729433       -0.7137440458       -2.6234409075
 H         -2.8128036054       -3.6530596592       -2.6701402319
 H         -3.5171511983       -2.3116486765       -1.6785998253
 H         -0.6114681250       -3.3449343681       -1.5247422616
