  62
        -98.93388058
 C         -2.1578260161       -1.0847563537       -0.4139671004
 C         -3.4250575032       -0.9487976875        0.2026535262
 C         -4.2318896615        0.2323208286       -0.1573098828
 C         -3.7243139997        1.1134480678       -1.0389381132
 C         -4.3271590830        2.4071345738       -1.5193328619
 C         -4.2265050557        3.5303877242       -0.4751062891
 C         -4.5928894681        3.1184257762        0.9482332447
 H         -3.9397759909        2.3023398405        1.2631370054
 H         -4.3856316095        3.9691338420        1.6028444577
 C         -6.0508327351        2.7138979012        1.1538935112
 H         -6.1912241328        2.5451249143        2.2245273953
 H         -6.6971108377        3.5441752649        0.8610344359
 C         -6.5078694475        1.4555476531        0.4124287544
 H         -7.4634956880        1.1504380050        0.8484818683
 H         -6.7001961873        1.6643179380       -0.6364527634
 C         -5.5677035026        0.2619675433        0.5462735626
 H         -6.0956605212       -0.6381205161        0.2092532204
 H         -5.3545950003        0.0892768099        1.6072105444
 H         -3.1934263172        3.8872382770       -0.4630374386
 H         -4.8653858793        4.3555874556       -0.7943654183
 H         -5.3583472373        2.2502766701       -1.8213935516
 H         -3.7616172067        2.7045602431       -2.4052519037
 O         -2.4985593628        0.9418198451       -1.6120550698
 C         -1.6836578182       -0.1396670747       -1.3234986692
 O         -0.6046907493       -0.1370421383       -1.9468759922
 O         -3.8753823085       -1.7848895748        1.0323394952
 C         -1.3071791391       -2.2796709327       -0.0136222804
 C         -0.2520300977       -1.8051588147        0.9566229884
 C         -0.5626208564       -1.7487997180        2.3131329090
 C          0.3602488574       -1.2830528586        3.2298485052
 C          1.6089285061       -0.8606122738        2.8103941565
 C          1.9288952827       -0.9101970459        1.4582507917
 C          1.0020575931       -1.3834537548        0.5389782532
 H          1.2595078794       -1.3851561474       -0.5073028736
 N          3.2068110710       -0.5161473742        1.0207341923
 S          3.3364592335        0.3769161141       -0.4100612393
 O          2.4160267238        1.4915980411       -0.3813685908
 O          3.2581347503       -0.5220269646       -1.5319356656
 C          5.0135134172        0.9651888312       -0.2414350613
 C          6.0501349995        0.1108030795       -0.5665107767
 C          7.3551479919        0.5480980241       -0.4048471809
 C          7.6012373838        1.8254060546        0.0767500337
 C          6.5511477539        2.6725924220        0.3968423350
 C          5.2435316940        2.2403088212        0.2391553651
 H          4.3951508661        2.8658616542        0.4666850368
 H          6.7448722963        3.6662180992        0.7676833857
 H          8.6177403467        2.1638560033        0.2008144474
 H          8.1739210851       -0.1069740868       -0.6550798984
 H          5.8089561016       -0.8684620104       -0.9456444706
 H          3.7366122133       -0.0672383193        1.7570357587
 H          2.3323109067       -0.4945593286        3.5234398943
 H          0.1054838238       -1.2443903550        4.2782070728
 H         -1.5460389277       -2.0618133714        2.6344819218
 H         -1.9895251495       -2.9433147013        0.5359576239
 C         -0.7438407694       -3.0411720874       -1.1934701513
 C         -0.2276182903       -4.4313071937       -0.9767259781
 C         -1.5016832412       -4.2146591153       -1.7351294725
 H         -1.5027975492       -4.3768314322       -2.8025732472
 H         -2.4328593129       -4.4738566857       -1.2526652248
 H          0.6505767992       -4.7429986301       -1.5210460242
 H         -0.2951097796       -4.8366788275        0.0216207438
 H         -0.2248109974       -2.4155182726       -1.9087178627
