  62
        -98.93436513
 C         -2.4551602203       -1.1825056356        0.0474403539
 C         -2.5768739917        0.0244127577       -0.6782896056
 C         -3.9404982232        0.5669578122       -0.8255098131
 C         -4.9787215857       -0.0924133866       -0.2783832846
 C         -6.4650844606        0.1986482712       -0.2963721800
 C         -6.9876946710        1.5694793664       -0.7184578330
 C         -6.6361804310        2.7109838963        0.2352677938
 H         -6.9698682867        3.6476863720       -0.2164138832
 H         -7.1950838565        2.5717965617        1.1640525893
 C         -5.1594118366        2.8354381504        0.6022595312
 H         -4.8385475842        1.9432053365        1.1438657273
 H         -5.0552355148        3.6813302256        1.2871798384
 C         -4.2103235603        3.0697358243       -0.5713180599
 H         -3.2227439790        3.2903068655       -0.1569004432
 H         -4.5372671810        3.9417261212       -1.1410448903
 C         -4.0482617816        1.8840629402       -1.5381841514
 H         -4.8474613195        1.8601638452       -2.2749562370
 H         -3.1063498826        2.0161567195       -2.0787243741
 H         -6.6617726084        1.8021862984       -1.7278456576
 H         -8.0777969084        1.4897436338       -0.7486619343
 H         -6.9076373566       -0.5576142620       -0.9540304482
 H         -6.8231258026       -0.0252074039        0.7134767993
 O         -4.8094567303       -1.2651545020        0.4021667533
 C         -3.5615546672       -1.8288683445        0.5937618089
 O         -3.5690180669       -2.8837462163        1.2603764374
 H          1.4341346339       -0.8960956236       -0.4541750039
 C          1.0641277520       -0.4631559500        0.4596988277
 C         -0.1818222416       -0.8109076569        0.9545687643
 C         -0.6167282777       -0.2243189698        2.1410651416
 C          0.1728266557        0.6921106541        2.8069127339
 C          1.4174972730        1.0369178084        2.3096052527
 C          1.8603074871        0.4591985165        1.1260083347
 N          3.1029518824        0.8194742476        0.5815437082
 S          3.9943866155       -0.3218617754       -0.2814564657
 O          3.4831867555       -0.4081168439       -1.6259172757
 O          4.0621400553       -1.5632237602        0.4571999646
 C          5.5881276483        0.4784926078       -0.2982119917
 C          5.7886836367        1.5241488519       -1.1799577864
 C          7.0128151071        2.1733655801       -1.1816544159
 C          8.0107007266        1.7687008285       -0.3070620740
 C          7.7956982549        0.7163727114        0.5699763994
 C          6.5726524165        0.0637966400        0.5782930832
 H          6.3621844729       -0.7630979643        1.2373141662
 H          8.5746798985        0.4019924982        1.2457576203
 H          8.9628096091        2.2754115764       -0.3113734925
 H          7.1844718292        2.9902434301       -1.8639288608
 H          4.9870980083        1.7971077828       -1.8465644471
 H          3.6833891423        1.3351877751        1.2286102596
 H          2.0349449569        1.7546107248        2.8280720521
 H         -0.1800235746        1.1391535925        3.7243111549
 H         -1.5888833002       -0.4976974092        2.5300312578
 C         -1.0874081914       -1.8031322459        0.2659395871
 H         -1.2427586112       -2.6525930158        0.9478869968
 C         -0.5309863510       -2.3268329497       -1.0408547385
 C          0.4746047667       -3.4373431763       -1.0369967535
 C         -0.9247003456       -3.6944170292       -1.5079340364
 H         -1.0941206629       -3.8504358845       -2.5626902467
 H         -1.5831816830       -4.2652393573       -0.8692052968
 H          0.7733284877       -3.8372053907       -0.0793904032
 H          1.2721915501       -3.4111029062       -1.7647718300
 H         -0.4283675461       -1.5518762627       -1.7925786652
 O         -1.5960851541        0.6272419756       -1.1876101705
