  62
        -98.94530477
 C          2.1340468814        0.9075717871        0.0700293216
 C          2.8325483790        0.2143992686        1.0864942171
 C          3.5466218493       -0.9980595325        0.6652021064
 C          3.4583138953       -1.4005785382       -0.6159194171
 C          4.1694613626       -2.5906686110       -1.1906669792
 C          5.5401711611       -2.1978565925       -1.7596368055
 C          6.3891331490       -1.3608503342       -0.8027444624
 H          7.3434967977       -1.1698304404       -1.2979728433
 H          5.9055994915       -0.3930260952       -0.6517411593
 C          6.6432909703       -2.0182516702        0.5609380178
 H          6.4464747627       -3.0891262325        0.4984510752
 H          7.6978209912       -1.8967107530        0.8170001831
 C          5.8341066468       -1.4209504011        1.7135915406
 H          6.2452102695       -1.8032788604        2.6515978929
 H          5.9550815962       -0.3348264101        1.7215497733
 C          4.3332867637       -1.7381616080        1.7105018929
 H          4.1844075117       -2.8157924217        1.6144144641
 H          3.9241887357       -1.4197880323        2.6740309215
 H          5.3820880013       -1.6197632071       -2.6729733405
 H          6.0776847668       -3.1103904350       -2.0237130503
 H          4.2884342370       -3.3457829209       -0.4158738569
 H          3.5552566476       -3.0018778209       -1.9937798054
 O          2.7374422200       -0.7352759793       -1.5544205782
 C          2.0635250739        0.4369658634       -1.2416180937
 O          1.4535548795        0.9493764573       -2.1982425248
 H         -0.0972942520        0.1691162970        1.3135098839
 C         -0.6964980424        0.8514643723        0.7220777148
 C         -0.0923182738        1.9776855205        0.1753616195
 C         -0.8705619364        2.8434836564       -0.5803384330
 C         -2.2116969122        2.5732472406       -0.7937195595
 C         -2.8057475302        1.4473814572       -0.2546347306
 C         -2.0379054011        0.5782180792        0.5099150224
 N         -2.6356221324       -0.5647480091        1.0749891435
 S         -3.4497689818       -1.6040789662        0.0337779577
 O         -3.4227309780       -2.8926532445        0.6924366840
 O         -2.9050258743       -1.5542912579       -1.3035481868
 C         -5.1193070415       -0.9852434982        0.0422905156
 C         -5.7339742332       -0.6461677545       -1.1470367376
 C         -7.0366558189       -0.1726411736       -1.1163633698
 C         -7.6974716195       -0.0485163631        0.0961668256
 C         -7.0664603758       -0.3958425251        1.2815997452
 C         -5.7649523838       -0.8708221923        1.2580372774
 H         -5.2393463909       -1.1546075988        2.1544126244
 H         -7.5835872024       -0.2977382163        2.2224341903
 H         -8.7103766361        0.3214076129        0.1172494593
 H         -7.5285099832        0.0975474081       -2.0369868061
 H         -5.1772578062       -0.7535626346       -2.0644849922
 H         -2.0071725353       -1.0915527552        1.6652352277
 H         -3.8479237693        1.2315455849       -0.4243192796
 H         -2.8027312110        3.2500890249       -1.3915450764
 H         -0.4253552799        3.7232478670       -1.0145353393
 C          1.3818256995        2.1771810067        0.4289412479
 H          1.5274185381        2.3060325325        1.5118874493
 C          1.9720276974        3.3722556675       -0.2881198339
 C          1.8424774696        4.7432852491        0.3032334040
 C          3.1709864161        4.0505363957        0.3015900298
 H          3.9411114400        4.4080192229       -0.3653754991
 H          3.5494163355        3.6640953795        1.2368146460
 H          1.7022329067        5.5809239518       -0.3629606663
 H          1.3198472429        4.8338550253        1.2432808044
 H          1.9347198017        3.2709163728       -1.3668945990
 O          2.8511020731        0.5878680867        2.2912112799
