  62
        -98.93796116
 C          2.4548787008        0.8884918399        0.7894018793
 C          3.5168026907        0.9164279797       -0.1475111508
 C          4.6054206406       -0.0455012405        0.0891996492
 C          4.5364770506       -0.8861354104        1.1364675593
 C          5.5472108704       -1.9484791905        1.4557282394
 C          5.1830458102       -3.2828894305        0.7899559095
 C          4.8464298900       -3.1608191806       -0.6962414504
 H          3.9281181801       -2.5793761705       -0.8080841304
 H          4.6352389998       -4.1667553406       -1.0655555303
 C          5.9543494701       -2.5258158009       -1.5480891106
 H          6.0754841799       -3.1144065910       -2.4599253106
 H          6.9025312201       -2.5628610210       -1.0104347807
 C          5.6739451103       -1.0858411909       -1.9816361107
 H          4.6823247702       -1.0267568208       -2.4376542107
 H          6.4034916502       -0.8138054411       -2.7491476208
 C          5.7588571905       -0.0278980108       -0.8743486909
 H          5.7344402906        0.9552768992       -1.3531959910
 H          6.7069575206       -0.1273593009       -0.3420976109
 H          4.3143055701       -3.7008398203        1.3037652797
 H          6.0190984801       -3.9725070806        0.9198254295
 H          5.5696610205       -2.0870018404        2.5379824094
 H          6.5292154204       -1.6198892807        1.1210993592
 O          3.4964773906       -0.8921739701        2.0087005994
 C          2.4361134108       -0.0182443100        1.8537188794
 O          1.5474576608       -0.1358475497        2.7221789695
 O          3.5796407908        1.6964964195       -1.1335119509
 C          1.2496473010        1.8130979401        0.7029489593
 C          0.2655292508        1.2815409402       -0.3123538005
 C          0.4941899007        1.3798634600       -1.6805148005
 C         -0.4243801995        0.8696877800       -2.5802547804
 C         -1.5824205795        0.2529478403       -2.1405187702
 C         -1.8175055894        0.1444840304       -0.7764342002
 C         -0.8976374893        0.6641582204        0.1256628997
 H         -1.0751073792        0.5686204205        1.1889533497
 N         -2.9781144395       -0.5047173093       -0.3171188600
 S         -4.4308067395       -0.1348304992       -1.0971484899
 O         -4.5201458997       -0.9310975993       -2.2954280298
 O         -4.5454959593        1.2946944708       -1.2800012601
 C         -5.6164862695       -0.7084777988        0.1019807302
 C         -6.1919016493        0.1986262713        0.9712679102
 C         -7.0925014193       -0.2607476684        1.9193729903
 C         -7.3975551995       -1.6120054984        1.9833408505
 C         -6.8117449497       -2.5102385585        1.1035068005
 C         -5.9112274697       -2.0577152688        0.1524571304
 H         -5.4378631399       -2.7168431589       -0.5564218896
 H         -7.0538235599       -3.5594732785        1.1555981207
 H         -8.0984638195       -1.9668710582        2.7222861806
 H         -7.5518492891        0.4352218017        2.6027783903
 H         -5.9310119791        1.2408611413        0.8794697100
 H         -3.0768015794       -0.4407605192        0.6869729000
 H         -2.3076133097       -0.1417433897       -2.8341116701
 H         -0.2364742496        0.9516956199       -3.6405593204
 H          1.4059717407        1.8372270098       -2.0313349907
 H          0.7691699610        1.7591174303        1.6891649194
 C          1.6193346012        3.2580534000        0.4352671891
 C          0.6246309914        4.3289894302        0.7633941291
 C          1.8627716914        4.1754292601        1.5938721390
 H          2.6398051815        4.9197603400        1.5062390089
 H          1.7631080814        3.7640404202        2.5880599691
 H          0.5480571715        5.1802293602        0.1045787590
 H         -0.3168994686        4.0216671204        1.1936024092
 H          2.2372560711        3.3947576098       -0.4414181409
