  62
        -98.93701311
 C          1.8699996369        1.1687555637       -0.1660524391
 C          2.3453769376       -0.0502398090       -0.7048869586
 C          3.8018723003       -0.2581423054       -0.6404127665
 C          4.5794004410        0.6961036318       -0.0974561359
 C          6.0643998669        0.5990062864        0.1088228641
 C          6.3700902136       -0.2918711102        1.3298649976
 C          7.1020086366       -1.5913474261        0.9942038554
 H          8.1499250328       -1.3651734170        0.7862681918
 H          7.0714890466       -2.2232552108        1.8843494041
 C          6.5482411996       -2.3804552847       -0.1961353109
 H          6.9841622985       -3.3805050050       -0.1454130647
 H          6.9002715408       -1.9352488049       -1.1279246746
 C          5.0211063498       -2.5122896231       -0.2622462561
 H          4.7816541905       -3.5202775569       -0.6072787944
 H          4.5808970947       -2.4044383818        0.7293139182
 C          4.3346994339       -1.5332817274       -1.2330701385
 H          5.0156382157       -1.2974011390       -2.0558045952
 H          3.4581187535       -2.0267233862       -1.6639159526
 H          5.4270277724       -0.5230309431        1.8295114446
 H          6.9759432467        0.2663757606        2.0451048397
 H          6.5338640069        0.1965504659       -0.7860171568
 H          6.4360470434        1.6104769510        0.2738303601
 O          4.0827634459        1.8547462186        0.4090901972
 C          2.7239203499        2.1201801000        0.3913398347
 O          2.4057550749        3.2159630318        0.8954879432
 H         -1.6032922148       -0.2664468101       -1.0391596064
 C         -1.3412677502       -0.3776557484       -0.0011715970
 C         -0.3652784186        0.4188450615        0.5744023235
 C         -0.0419412295        0.2169738630        1.9148271043
 C         -0.6686823705       -0.7671916929        2.6526827726
 C         -1.6393046144       -1.5657467117        2.0723168679
 C         -1.9720288033       -1.3716589373        0.7375656600
 N         -2.9343681005       -2.1874824764        0.1236318905
 S         -4.0898176216       -1.5579793685       -0.9038324676
 O         -5.0623677528       -2.6194910121       -1.0413090684
 O         -3.4841559271       -1.0852407424       -2.1216393872
 C         -4.8044744611       -0.2002103156        0.0049687977
 C         -4.3339541386        1.0812936376       -0.1962048216
 C         -4.8609637104        2.1138377456        0.5637443465
 C         -5.8423862338        1.8489804581        1.5060947894
 C         -6.3072587846        0.5558824389        1.6936321265
 C         -5.7818481222       -0.4809232014        0.9402695495
 H         -6.1233191662       -1.4978687381        1.0461243565
 H         -7.0744219900        0.3540555831        2.4237048130
 H         -6.2490464418        2.6560245343        2.0948822268
 H         -4.5020775052        3.1200487261        0.4164912902
 H         -3.5743902281        1.2510193121       -0.9408980375
 H         -3.3354831603       -2.8888275322        0.7285137784
 H         -2.1241815177       -2.3425305955        2.6438559281
 H         -0.4024504854       -0.9153003000        3.6884285693
 H          0.7203164421        0.8396048668        2.3640114655
 C          0.3836353540        1.4852922143       -0.1862180155
 H          0.2720373092        2.4350425932        0.3564100574
 C         -0.0912292202        1.6822318970       -1.6098441891
 C         -1.2602016092        2.5749819881       -1.8939544802
 C          0.1245256860        3.0117189956       -2.2657463206
 H          0.3986936209        3.0329364214       -3.3098313861
 H          0.5937045689        3.7852597711       -1.6750088491
 H         -1.7289617296        3.0638385705       -1.0530311889
 H         -1.9403821469        2.2965009335       -2.6856354889
 H          0.0394764117        0.7999475480       -2.2260189175
 O          1.5970002688       -0.9228634828       -1.2182207106
