  62
        -98.94284992
 C         -2.0959091111       -1.5123654631        0.1127723313
 C         -1.7134938993       -0.3729603853       -0.6395587483
 C         -2.7566923299        0.6515510565       -0.8201290203
 C         -3.9799807556        0.4572922594       -0.2976178627
 C         -5.1121661126        1.4397661373       -0.3668937823
 C         -5.1103494964        2.3731950172        0.8519278911
 C         -3.7479885826        3.0006971530        1.1477688031
 H         -3.0507703318        2.2154424714        1.4492126700
 H         -3.8759860903        3.6629896207        2.0067322985
 C         -3.1458837416        3.7905039686       -0.0225013340
 H         -2.7509171444        4.7338465562        0.3601296379
 H         -3.9266516091        4.0359693173       -0.7434659514
 C         -1.9944717146        3.0836574719       -0.7402784769
 H         -1.2535736941        2.7526146479       -0.0083204433
 H         -1.5109744133        3.8120534687       -1.3965865505
 C         -2.3861036307        1.8786917278       -1.6046391135
 H         -1.5139406013        1.5970846238       -2.2017885227
 H         -3.1921873104        2.1587264308       -2.2859990624
 H         -5.4205224370        1.7987134726        1.7280158651
 H         -5.8477621013        3.1605028149        0.6845742189
 H         -6.0505046024        0.8825801623       -0.3851925616
 H         -5.0289285630        2.0206555060       -1.2833765142
 O         -4.3123894878       -0.6529010561        0.4095372601
 C         -3.3783090452       -1.6452938829        0.6534851054
 O         -3.8043306675       -2.5840547901        1.3558829434
 O         -0.5752695141       -0.2040885910       -1.1452319974
 C         -1.1195480553       -2.6330742995        0.4327053941
 C          0.1859329766       -2.0445759498        0.9050595776
 C          0.2379369316       -1.4359021677        2.1557066182
 C          1.4063963357       -0.8550235411        2.6111750635
 C          2.5454090515       -0.8600661583        1.8251383632
 C          2.4972326095       -1.4489164622        0.5687004241
 C          1.3266511047       -2.0463189289        0.1196862244
 H          1.2981860635       -2.4838255499       -0.8657898162
 N          3.6390092741       -1.4405562706       -0.2481942619
 S          4.5931081002       -0.0689220407       -0.2859770967
 O          5.2597246118       -0.1139773891       -1.5691257155
 O          5.4614336527       -0.0568675921        0.8665565241
 C          3.4826663509        1.3255959472       -0.2150532919
 C          3.6279297754        2.2610726061        0.7893813868
 C          2.7649855659        3.3441922404        0.8268480341
 C          1.7775891889        3.4726423600       -0.1375759093
 C          1.6480655470        2.5263953050       -1.1421259239
 C          2.5058998067        1.4403873489       -1.1834312521
 H          2.4153304278        0.6888497526       -1.9504648005
 H          0.8754814457        2.6191275280       -1.8875276084
 H          1.1037381916        4.3145802780       -0.1072196817
 H          2.8636947238        4.0821339367        1.6068079909
 H          4.4100634051        2.1223904384        1.5183811307
 H          3.4790931773       -1.8000165950       -1.1776409060
 H          3.4670545993       -0.4184921612        2.1675831782
 H          1.4326661901       -0.3913911068        3.5856783106
 H         -0.6558225409       -1.4190618842        2.7649716643
 H         -1.5739826389       -3.1711112854        1.2803193490
 C         -0.9462029569       -3.6545875196       -0.6816185140
 C         -2.1141590349       -4.0645966667       -1.5267181642
 C         -0.9849187510       -3.2905616677       -2.1342668251
 H         -0.3169990818       -3.8077832001       -2.8082780356
 H         -1.1489400864       -2.2561965470       -2.3910524800
 H         -2.2232607267       -5.1076311214       -1.7830925284
 H         -3.0526228944       -3.5564872405       -1.3583757844
 H         -0.2585106456       -4.4455120277       -0.3964737555
