  62
        -98.93960240
 C         -0.2587305954       -1.7984933444        0.6628188961
 C         -1.0653856346       -1.9024604216       -0.4947585435
 C         -2.3933993669       -1.2781153226       -0.4089670068
 C         -2.7575659133       -0.6357301500        0.7154172770
 C         -4.0954824193       -0.0042150227        1.0010340764
 C         -4.5035991510        1.1850935897        0.1111364800
 C         -5.3505482800        0.8076142584       -1.1102484629
 H         -5.8477383691       -0.1437839867       -0.9178798862
 H         -6.1389210165        1.5521323419       -1.2377067586
 C         -4.5883403291        0.7290128213       -2.4361569923
 H         -4.4099216234        1.7406995585       -2.8068220088
 H         -5.2269583726        0.2213292420       -3.1622683450
 C         -3.2380493911        0.0143607081       -2.3790551833
 H         -2.4969371343        0.6580502147       -1.8989875956
 H         -2.8909308691       -0.1449790487       -3.4018449158
 C         -3.2624956812       -1.3326241685       -1.6314993228
 H         -4.2821413162       -1.6061823047       -1.3637736976
 H         -2.8519080268       -2.1189396533       -2.2682460961
 H         -5.0917210593        1.8584272291        0.7364191205
 H         -3.6104736051        1.7218629343       -0.2029839105
 H         -4.8630626748       -0.7796827235        0.9417647687
 H         -4.0411941805        0.3284261126        2.0394003893
 O         -1.9332724150       -0.5287153918        1.7946110249
 C         -0.6711237463       -1.0973075137        1.7949277218
 O         -0.0228542211       -0.9140587639        2.8457389833
 O         -0.7056197184       -2.4984158999       -1.5432167301
 C          1.1344664349       -2.4015717099        0.6668687846
 C          1.9599919781       -1.7424888869       -0.4120098722
 C          2.7007098485       -2.4383431954       -1.3573876867
 C          3.4176505431       -1.7525721971       -2.3231442627
 C          3.4275580042       -0.3704029559       -2.3543055074
 C          2.6979774240        0.3360347807       -1.4041181638
 C          1.9700104256       -0.3535649710       -0.4499103463
 H          1.4003511929        0.1960466338        0.2855399486
 N          2.6671217418        1.7387660880       -1.4048052218
 S          2.6754310781        2.5653755132        0.0504590513
 O          3.1451002197        3.8906343807       -0.2972100166
 O          3.4457926258        1.8654890050        1.0518132170
 C          0.9682959582        2.6873071351        0.5368075197
 C          0.0699768557        3.2394313546       -0.3551328861
 C         -1.2476813637        3.4029985945        0.0395270998
 C         -1.6422349908        3.0169466278        1.3123224370
 C         -0.7303465724        2.4571813968        2.1924072094
 C          0.5894939306        2.2925034387        1.8040015315
 H          1.3229068926        1.8494906536        2.4599327224
 H         -1.0365644470        2.1353892104        3.1748772087
 H         -2.6658225511        3.1523810454        1.6239280767
 H         -1.9618637396        3.8363619822       -0.6429683201
 H          0.4164471001        3.5349129974       -1.3315768449
 H          3.2620785638        2.1795521646       -2.0912255818
 H          3.9901746877        0.1608599697       -3.1069075435
 H          3.9819883266       -2.3037753042       -3.0600872972
 H          2.7100520850       -3.5157073249       -1.3457141620
 H          1.5800722229       -2.1380699440        1.6378655492
 C          1.0667917359       -3.9094561713        0.5523419038
 C          2.1636577792       -4.7570444341        1.1210581040
 C          0.8229239596       -4.7185949564        1.7891914727
 H          0.1856821979       -5.5873790459        1.7203084647
 H          0.7298921991       -4.1820290757        2.7225175309
 H          2.4469276112       -5.6566161457        0.5957081514
 H          2.9856406723       -4.2516301902        1.6056218817
 H          0.5861380330       -4.2365662768       -0.3621134436
