  62
        -98.93722663
 C          2.2776972605        1.1070936760        0.0825992969
 C          2.2022258827       -0.0147223231       -0.7789202128
 C          2.7661739549       -1.2680980884       -0.2511817773
 C          3.2442992908       -1.3063518070        1.0046837050
 C          3.8708163032       -2.5066917917        1.6516406044
 C          5.3898617933       -2.5303644592        1.4309240257
 C          5.8054517835       -2.3131971536       -0.0240427057
 H          5.5345026723       -1.2980945279       -0.3232377941
 H          6.8946372910       -2.3806627486       -0.0645546575
 C          5.1935248361       -3.3134222840       -1.0146695795
 H          5.9758489314       -3.6551267443       -1.6955814869
 H          4.8259743734       -4.1885516192       -0.4777336668
 C          4.0689922593       -2.7413898624       -1.8796699498
 H          3.8606550791       -3.4545927481       -2.6815334849
 H          4.4034768672       -1.8118212733       -2.3470151169
 C          2.7438090327       -2.4674564171       -1.1571687778
 H          1.9878461708       -2.2525287608       -1.9182945109
 H          2.4310035570       -3.3576471884       -0.6073279713
 H          5.7740158791       -3.4895773871        1.7824754019
 H          5.8392458508       -1.7407940842        2.0375500523
 H          3.4182805801       -3.4089109929        1.2444086739
 H          3.6671694334       -2.4626442130        2.7229769725
 O          3.2497337474       -0.2237392101        1.8240160644
 C          2.7784112207        0.9999913590        1.3834146561
 O          2.8596612354        1.9133340981        2.2294751298
 O          1.6908082882        0.0037655917       -1.9292942241
 C          1.7627500466        2.4884345080       -0.2955089153
 C          0.3014911372        2.5961108824        0.0581361777
 C         -0.1791973284        3.6250642409        0.8579705792
 C         -1.5157959152        3.6733070683        1.2169908401
 C         -2.3975177292        2.6961539369        0.7904520151
 C         -1.9248803041        1.6650674841       -0.0096240440
 C         -0.5895400314        1.6238270998       -0.3761517788
 H         -0.2300140127        0.8174860742       -0.9992859521
 N         -2.8158493240        0.6428835272       -0.4302294854
 S         -3.1855969997       -0.4633998121        0.7981682800
 O         -3.6005472918        0.2722674248        1.9647057014
 O         -2.0851929987       -1.3889741346        0.9790851356
 C         -4.5822268126       -1.3076990012        0.0827595459
 C         -4.3942096952       -2.5184156195       -0.5547269930
 C         -5.4848927267       -3.1460657555       -1.1361962932
 C         -6.7366648343       -2.5531259447       -1.0733208678
 C         -6.9090858090       -1.3363015899       -0.4302362793
 C         -5.8229686148       -0.7042882185        0.1533358549
 H         -5.9095478768        0.2370130992        0.6699526561
 H         -7.8843468083       -0.8794791803       -0.3819674810
 H         -7.5833153599       -3.0438826246       -1.5267725552
 H         -5.3534971395       -4.0928808953       -1.6349578616
 H         -3.4046051065       -2.9466659881       -0.5718433489
 H         -2.4060590460        0.1096490109       -1.1885462884
 H         -3.4334582348        2.7076053743        1.0855106088
 H         -1.8728727316        4.4768007527        1.8431120848
 H          0.5071539545        4.3775985863        1.2183269014
 H          2.3117559429        3.1884032893        0.3539888395
 C          2.0675846018        2.8696431943       -1.7378017743
 C          1.0153808426        3.0597471894       -2.7849455088
 C          1.7339519372        4.2483970448       -2.2262124782
 H          2.4492512137        4.7650398782       -2.8478192999
 H          1.1853393415        4.8906544648       -1.5536563777
 H          1.2460884796        2.7336019891       -3.7875674858
 H         -0.0163154939        2.9121381068       -2.5069406003
 H          3.0087026246        2.4491411240       -2.0765306761
