  62
        -98.94486287
 C          1.9417069206        0.5378597911       -0.6113245295
 C          3.0155260405        1.3167605106       -0.1156958186
 C          4.3500406305        0.7213309509       -0.2413810992
 C          4.4891131807       -0.4884780285       -0.8136302804
 C          5.7867880608       -1.2159517682       -1.0402206311
 C          6.2809392707       -2.0086428894        0.1776580681
 C          6.8282216906       -1.1610725805        1.3268178890
 H          7.3362210906       -1.8418501112        2.0127770384
 H          7.5774305306       -0.4688946301        0.9412731398
 C          5.7575298805       -0.3839055614        2.1052745598
 H          5.9289825704       -0.5027105425        3.1775127897
 H          4.7732497205       -0.8063353013        1.8899303193
 C          5.7270413004        1.1166358989        1.8148015013
 H          4.9101883203        1.5605949282        2.3893257917
 H          6.6608999203        1.5736471386        2.1494529718
 C          5.5132774604        1.4694923504        0.3369941717
 H          5.2892397004        2.5367665004        0.2681496428
 H          6.4188790005        1.2646160010       -0.2334501685
 H          7.0771462208       -2.6723344490       -0.1674596325
 H          5.4625252608       -2.6337054898        0.5425363474
 H          5.6097662509       -1.9175045774       -1.8583185118
 H          6.5548888407       -0.5070079078       -1.3507752703
 O          3.4323285508       -1.2019046481       -1.2857918512
 C          2.1340341507       -0.7204080383       -1.1815469208
 O          1.2668389608       -1.4927721379       -1.6319603517
 H         -1.7194726893       -0.4167986387       -1.1287885907
 C         -1.4039929494       -0.5084599797       -0.1037656608
 C         -0.2984293694        0.1828213499        0.3637713700
 C          0.0860829305        0.0093011585        1.6921844498
 C         -0.6102452795       -0.8441307024        2.5241689689
 C         -1.7123117994       -1.5365890920        2.0520657681
 C         -2.1061397993       -1.3703225007        0.7303139883
 N         -3.2054459593       -2.0818613502        0.2248523975
 S         -4.3578669593       -1.3411281793       -0.7294683819
 O         -5.4544601092       -2.2834378394       -0.7648300329
 O         -3.7989420992       -0.9627242280       -2.0013794614
 C         -4.8376895794        0.1058954597        0.1960015996
 C         -5.7946761895       -0.0340203314        1.1826228394
 C         -6.1346311396        1.0686321577        1.9489930905
 C         -5.5080661397        2.2850098680        1.7228849118
 C         -4.5488085597        2.4083586691        0.7298146520
 C         -4.2068267595        1.3097542500       -0.0432536291
 H         -3.4693081595        1.3693496008       -0.8262190790
 H         -4.0641175297        3.3552670694        0.5529689530
 H         -5.7704722898        3.1430787474        2.3214052227
 H         -6.8833700797        0.9768006169        2.7192412604
 H         -6.2644019594       -0.9948689516        1.3174180284
 H         -3.6401209192       -2.7052841510        0.8891752068
 H         -2.2540297394       -2.2114062327        2.6973055974
 H         -0.2965437696       -0.9721632034        3.5491832388
 H          0.9498877404        0.5480465782        2.0572000304
 C          0.5313675705        1.0932830908       -0.5060982890
 H          0.6407510304        2.0576306303        0.0113013420
 C         -0.0523716994        1.3438231522       -1.8793099988
 C         -1.1192071095        2.3805501823       -2.0597938678
 C          0.2643155305        2.6301829230       -2.5792017475
 H          0.4293602806        2.6088998341       -3.6459901775
 H          0.8870099604        3.3403090525       -2.0548975967
 H         -1.4311519996        2.9301639814       -1.1842950573
 H         -1.9088493294        2.1877609030       -2.7712246481
 H         -0.1026280393        0.4485955728       -2.4891948797
 O          2.8650508404        2.4543159401        0.4046375525
