  62
        -98.94786936
 C         -1.0104200592       -0.9590031754        0.7181610074
 C         -1.6635758156       -0.8615543860       -0.5338080087
 C         -2.3437987133        0.4117283641       -0.7989654233
 C         -2.2562534133        1.4158964928        0.0909552817
 C         -2.8556795197        2.7883157466       -0.0593821361
 C         -4.3332742801        2.8765795004        0.3471345846
 C         -5.3171126042        2.2197768952       -0.6217116098
 H         -6.3179829025        2.5452341026       -0.3312326874
 H         -5.1336600766        2.5911240624       -1.6304717278
 C         -5.2775287445        0.6852970310       -0.6213653488
 H         -4.7687016249        0.3338830413        0.2790127425
 H         -6.2969231471        0.2945351155       -0.5877369018
 C         -4.5965613775        0.0697719578       -1.8438617836
 H         -5.1714940111        0.3053011358       -2.7422718201
 H         -4.5897994691       -1.0164563787       -1.7233145038
 C         -3.1485066146        0.5303966001       -2.0571492642
 H         -2.6839462105       -0.1163626123       -2.8060005205
 H         -3.1272046661        1.5557353108       -2.4272838377
 H         -4.4487533982        2.4338240892        1.3389736191
 H         -4.5859354752        3.9366455551        0.4237883184
 H         -2.2810303498        3.4527720231        0.5900343516
 H         -2.7360543821        3.1258498148       -1.0898056256
 O         -1.5678953941        1.3026069423        1.2585331625
 C         -0.9371089844        0.1160934749        1.6020616794
 O         -0.3476843170        0.1480081370        2.7014109886
 H          1.4398408944       -0.3779156846        0.2490072564
 C          1.6351249346       -1.3181019508       -0.2458726743
 C          0.8556962597       -2.4232879954        0.0719972381
 C          1.1282919000       -3.6305712929       -0.5563734653
 C          2.1343296740       -3.7099525551       -1.5047333269
 C          2.8732821760       -2.5947394261       -1.8543740933
 C          2.6174220235       -1.3847319753       -1.2182100868
 N          3.3500515406       -0.2286656297       -1.5246147091
 S          2.6118055029        1.2706271441       -1.4427927052
 O          1.2267053523        1.2231102030       -1.8510247600
 O          3.4714895340        2.1295803744       -2.2323038739
 C          2.7473209063        1.7430309532        0.2673694947
 C          1.6777705486        2.3666166791        0.8772287650
 C          1.7896731544        2.7506102012        2.2034855854
 C          2.9683173056        2.5097171998        2.8914627046
 C          4.0378025870        1.8904609889        2.2623590067
 C          3.9309653653        1.5027868956        0.9366014360
 H          4.7379099437        1.0140614690        0.4167094464
 H          4.9516665435        1.7041852919        2.8033024549
 H          3.0493209120        2.8035536229        3.9260460120
 H          0.9516094362        3.2186978577        2.6942453465
 H          0.7714492354        2.5182748994        0.3107371746
 H          3.9737838931       -0.3073421595       -2.3144465906
 H          3.6375077468       -2.6542451996       -2.6141556274
 H          2.3334217140       -4.6519143681       -1.9930098781
 H          0.5455543743       -4.5046900687       -0.3164496116
 C         -0.2499233394       -2.2229172353        1.0809131411
 H          0.2112069629       -2.0307955253        2.0609231604
 C         -1.1879864673       -3.4044639735        1.2017612493
 C         -0.8463062133       -4.5476420224        2.1083574871
 C         -1.9452180076       -3.5992210700        2.4798205954
 H         -2.9670518270       -3.9436707121        2.4263465285
 H         -1.7645417070       -2.8907910950        3.2753454353
 H         -1.1163215953       -5.5471042536        1.8024279930
 H          0.0799431869       -4.4887979544        2.6595236873
 H         -1.7063733479       -3.6202823476        0.2747495260
 O         -1.6825676178       -1.7881173008       -1.3859965003
