  62
        -98.94469871
 C         -1.9049781478       -0.3284897304       -0.7086256103
 C         -2.9221696116       -1.2366830171       -0.3295979229
 C         -4.2913489853       -0.7059847386       -0.3336452185
 C         -4.4997506751        0.5710854643       -0.7033445740
 C         -5.8346673450        1.2569113781       -0.6951659855
 C         -6.0925836339        1.9518975172        0.6492873934
 C         -5.8352369738        1.0612455856        1.8648191831
 H         -4.7694083003        0.8271265262        1.9148097251
 H         -6.0770171131        1.6473490526        2.7541066823
 C         -6.6423945803       -0.2445003211        1.8776643094
 H         -7.4843374714       -0.1661031096        1.1889649419
 H         -7.0547430716       -0.3914515048        2.8781525637
 C         -5.8292457197       -1.4961890787        1.5426735737
 H         -4.9348439120       -1.5305946604        2.1697685963
 H         -6.4355094698       -2.3717263341        1.7896484983
 C         -5.3964009594       -1.6378861509        0.0779187987
 H         -5.0002635704       -2.6488775368       -0.0549037017
 H         -6.2633684819       -1.5204099514       -0.5752039280
 H         -5.4377640084        2.8236524933        0.7190243756
 H         -7.1264886297        2.3015346413        0.6642953551
 H         -6.6152946525        0.5250357227       -0.8934924341
 H         -5.8413650050        2.0061634193       -1.4885483747
 O         -3.4995608358        1.4068785423       -1.0834423513
 C         -2.1771382348        0.9859712876       -1.0872349724
 O         -1.3616788857        1.8579521552       -1.4419026768
 O         -2.6938645502       -2.4310533979        0.0021291775
 C         -0.4636591497       -0.8058691429       -0.7138573569
 C          0.3715289533        0.0628464228        0.1929205374
 C         -0.0696941178        0.2863149667        1.4957501823
 C          0.6426367454        1.0974320915        2.3558838680
 C          1.8220634119        1.6924286264        1.9417035769
 C          2.2786845414        1.4671195344        0.6499941582
 C          1.5583639542        0.6507835916       -0.2135484280
 H          1.9321953344        0.5088864773       -1.2131806543
 N          3.4707615227        2.0598801529        0.2010521871
 S          4.5953694605        1.1277392744       -0.6128311408
 O          5.8307478854        1.8725306611       -0.5062165897
 O          4.1408058647        0.8394291093       -1.9483989895
 C          4.6961337366       -0.3689710954        0.3513228206
 C          4.0530403854       -1.5101701179       -0.0811657697
 C          4.0813831269       -2.6390405364        0.7226863552
 C          4.7460522956       -2.6061281348        1.9385370573
 C          5.3926292274       -1.4526070485        2.3564494368
 C          5.3655053242       -0.3206179949        1.5588575793
 H          5.8643857827        0.5916814454        1.8431644827
 H          5.9130396586       -1.4323096466        3.3003916172
 H          4.7620136219       -3.4859653968        2.5622580174
 H          3.5815869132       -3.5379433903        0.3983430524
 H          3.5488393370       -1.4962617817       -1.0332103697
 H          3.9223055299        2.6507282840        0.8839910637
 H          2.3771573999        2.3344509161        2.6086311938
 H          0.2805209478        1.2680562990        3.3584860845
 H         -0.9914268048       -0.1778853682        1.8192479929
 H         -0.4931854552       -1.8208822084       -0.2900398271
 C          0.0577754001       -0.8879010838       -2.1325516138
 C          1.0841925719       -1.9149646055       -2.5021822270
 C         -0.3278464216       -2.0600603281       -2.9825582162
 H         -0.5414715138       -1.8906395681       -4.0272595546
 H         -0.9467107463       -2.8195728262       -2.5274541516
 H          1.8494888766       -1.6456723810       -3.2154550739
 H          1.4157753718       -2.5870713244       -1.7250169252
 H          0.1053326749        0.0808309336       -2.6182395988
