  62
        -98.94443006
 C          1.9555321994        1.0965720862       -0.1990740840
 C          2.4311582739       -0.0759718514       -0.8335070066
 C          3.8866891229       -0.2810218205       -0.7861243193
 C          4.6643824827        0.6379838814       -0.1852329387
 C          6.1523728156        0.5288237008       -0.0229048755
 C          6.5181174127       -0.1553295302        1.3017864533
 C          5.7599774232       -1.4586639486        1.5537871492
 H          6.1207252711       -1.8669596398        2.5003230440
 H          4.6985431990       -1.2353692698        1.6835440103
 C          5.9221174019       -2.5113698732        0.4484204562
 H          6.7931366280       -2.2749935824       -0.1638769793
 H          6.1067515639       -3.4820324395        0.9134670936
 C          4.6983252524       -2.6764532499       -0.4548301879
 H          4.8348711972       -3.5832364834       -1.0502687424
 H          3.8049687343       -2.8201844825        0.1585415802
 C          4.4296868953       -1.5246423916       -1.4316478243
 H          3.6589356753       -1.8576528693       -2.1331710738
 H          5.3365168452       -1.3024229244       -1.9979744629
 H          7.5919945438       -0.3506299628        1.3041368046
 H          6.2960206602        0.5336496218        2.1199206971
 H          6.5737377543        1.5354571626       -0.0301821737
 H          6.5633681911       -0.0324255586       -0.8597480832
 O          4.1711824113        1.7628488455        0.3931567099
 C          2.8092991544        2.0143537184        0.4126953500
 O          2.4876104596        3.0683596000        0.9975758142
 O          1.6839585265       -0.9095339429       -1.4091699358
 C          0.4670038485        1.3988807324       -0.1814738551
 C         -0.2793997318        0.2469631544        0.4454190164
 C          0.1104659247       -0.1860522829        1.7111543847
 C         -0.5203488339       -1.2530137295        2.3190569809
 C         -1.5636315246       -1.9044039992        1.6836160788
 C         -1.9658806999       -1.4770336336        0.4247430210
 C         -1.3296803358       -0.4015658416       -0.1832497094
 H         -1.6515426250       -0.1064807157       -1.1671246407
 N         -3.0078134552       -2.1345309438       -0.2479018426
 S         -4.1957446286       -1.2723711280       -1.0451446280
 O         -5.2499466590       -2.2364636102       -1.2702372435
 O         -3.6574313483       -0.6314924666       -2.2168247068
 C         -4.7310682648       -0.0556619790        0.1433972811
 C         -4.2208206338        1.2252810197        0.0920196829
 C         -4.5991632897        2.1349662538        1.0671358348
 C         -5.4745845366        1.7501807118        2.0706481285
 C         -5.9823509791        0.4600701650        2.1054336568
 C         -5.6049671944       -0.4546968525        1.1363076832
 H         -5.9852553455       -1.4632434886        1.1204479702
 H         -6.6672586561        0.1657436164        2.8842901606
 H         -5.7644972344        2.4614250660        2.8279463899
 H         -4.2071759030        3.1392902532        1.0400229999
 H         -3.5465972934        1.4894229791       -0.7056951351
 H         -3.4078076081       -2.9100007657        0.2596081885
 H         -2.0522490830       -2.7451410927        2.1522169716
 H         -0.1999020252       -1.5817833753        3.2962364852
 H          0.9280403653        0.3221209588        2.2050400627
 H          0.3453818639        2.2803365468        0.4648706848
 C         -0.0078060352        1.7506237954       -1.5753975698
 C         -1.1579308087        2.6917592657       -1.7642343365
 C          0.2349451628        3.1337085321       -2.0972055309
 H          0.5076277437        3.2524934742       -3.1351107830
 H          0.7220045697        3.8343339800       -1.4343574319
 H         -1.8484143700        2.5060344292       -2.5740210131
 H         -1.6121788753        3.1059677150       -0.8765206918
 H          0.1022103857        0.9309785418       -2.2766815460
