  62
        -98.94299076
 C         -2.6800385624        1.2021937885       -0.1292152924
 C         -2.6995854323        0.2050737092        0.8752470108
 C         -3.8958426608       -0.6490030662        0.9024586268
 C         -4.8836815729       -0.4302540826        0.0153883202
 C         -6.1285244855       -1.2599911447       -0.1037750922
 C         -5.9367719430       -2.4066856584       -1.1063934471
 C         -4.6593799641       -3.2162342313       -0.8826095389
 H         -4.6460517073       -4.0145332996       -1.6278525319
 H         -3.7937198934       -2.5793619387       -1.0789795835
 C         -4.5307944688       -3.8246261541        0.5208538046
 H         -4.1980223891       -4.8601758899        0.4241558510
 H         -5.5065920460       -3.8422813217        1.0076153776
 C         -3.5240511844       -3.1163286981        1.4293126512
 H         -2.5690693958       -3.0113819190        0.9079961502
 H         -3.3517162193       -3.7491849752        2.3039323932
 C         -3.9462923834       -1.7334975494        1.9414799300
 H         -4.9402429080       -1.7937515732        2.3893980016
 H         -3.2357357022       -1.4360171098        2.7181913121
 H         -6.8037660268       -3.0669823078       -1.0452714745
 H         -5.9020867399       -1.9838502925       -2.1131723596
 H         -6.3886406425       -1.6584881226        0.8748527864
 H         -6.9387183229       -0.6168998315       -0.4515304122
 O         -4.8377483481        0.5540149640       -0.9191723274
 C         -3.7333858907        1.3830622792       -1.0249434505
 O         -3.8068505401        2.2269367501       -1.9414457841
 O         -1.7697156086        0.0360362333        1.7062768005
 C         -1.4786781295        2.1216373967       -0.2562901545
 C         -0.2305454203        1.3038196328       -0.4851746251
 C         -0.2237071385        0.3714578000       -1.5199335885
 C          0.8948758623       -0.3983551607       -1.7713327876
 C          2.0343459208       -0.2570621402       -0.9977606750
 C          2.0443759608        0.6781929584        0.0266135507
 C          0.9181934719        1.4553785339        0.2736861690
 H          0.9430792025        2.1760814596        1.0761079488
 N          3.1912566021        0.8231603491        0.8215419816
 S          4.6983543490        0.8943266899        0.0937567387
 O          5.5388493911        1.5929076096        1.0415238637
 O          4.6204647863        1.4602177379       -1.2329318269
 C          5.2169423926       -0.8067003571        0.0040440216
 C          5.2014942780       -1.5562178807        1.1639733673
 C          5.6151888149       -2.8776515487        1.1121227406
 C          6.0380183109       -3.4234585340       -0.0908624879
 C          6.0508973506       -2.6568831326       -1.2459690750
 C          5.6372487518       -1.3345332665       -1.2009768149
 H          5.6253351652       -0.7026803060       -2.0749571790
 H          6.3802467234       -3.0828908042       -2.1800778334
 H          6.3595644157       -4.4523461734       -0.1281179257
 H          5.6058791710       -3.4771980507        2.0081872410
 H          4.8682459137       -1.0958667611        2.0791049321
 H          3.1019290388        1.5078631797        1.5577101087
 H          2.9089073420       -0.8579396093       -1.1859573928
 H          0.8809367451       -1.1192587334       -2.5749117850
 H         -1.1142821288        0.2593341794       -2.1242357180
 H         -1.6540104494        2.7294525138       -1.1561100149
 C         -1.3994703272        3.0427713520        0.9431358553
 C         -0.7370557448        4.3816404557        0.8230994361
 C         -2.2274653078        4.2909996878        0.9513240848
 H         -2.6859319472        4.6000814336        1.8786677604
 H         -2.8316788380        4.4903470869        0.0781690723
 H         -0.1740852457        4.7584493070        1.6641256030
 H         -0.3258689898        4.6519851682       -0.1380333866
 H         -1.3017576444        2.5028390171        1.8781275141
