  62
        -98.94734461
 C          2.5454053097        0.2039816605       -0.0308965997
 C          2.2429400497        1.2089280705       -0.9795077096
 C          1.7087661195        2.4625331304       -0.4376935696
 C          1.5501663994        2.5999547303        0.8914015304
 C          1.0537169392        3.8300592302        1.6024393904
 C         -0.4756509509        3.9377805900        1.6632112003
 C         -1.1476680708        4.3206882500        0.3443377202
 H         -0.6576183708        5.2010502901       -0.0733860396
 H         -2.1780586308        4.5973445099        0.5758184101
 C         -1.1648670305        3.1934835501       -0.6967996199
 H         -2.1580166105        3.1231871100       -1.1482429800
 H         -0.9837949405        2.2346228401       -0.2049250699
 C         -0.1668665304        3.3572041003       -1.8435210197
 H         -0.4477528604        4.2188124103       -2.4545219197
 H         -0.2334564402        2.4617498004       -2.4679084198
 C          1.2933876795        3.5292660904       -1.4054275496
 H          1.4400342294        4.5174775404       -0.9689613495
 H          1.9278856496        3.4380892706       -2.2909132995
 H         -0.7213966910        4.6965270299        2.4100137603
 H         -0.8773673508        2.9813178899        2.0069317802
 H          1.4653589891        4.7204551502        1.1258237806
 H          1.4367521191        3.7714642901        2.6235819205
 O          1.8649302594        1.6142926802        1.7725988003
 C          2.3192505996        0.3807242803        1.3339190503
 O          2.5062187196       -0.4495514697        2.2450676902
 O          2.4198912899        1.0663488606       -2.2209946996
 C          3.0115663299       -1.1577076594       -0.5175531098
 C          1.9704561700       -2.1798565396       -0.1308697700
 C          2.2514998201       -3.3798634196        0.5075601600
 C          1.2211806501       -4.2217301698        0.8922497698
 C         -0.0993666299       -3.8814345999        0.6654356597
 C         -0.3888237299       -2.6920437099        0.0044338697
 C          0.6448826200       -1.8707816297       -0.4088269701
 H          0.4119523900       -0.9492146797       -0.9226559000
 N         -1.7159435300       -2.3099950300       -0.2637659304
 S         -2.0541861801       -0.6531066500       -0.2910432603
 O         -1.7179309300       -0.1414814199       -1.5956825402
 O         -1.4499250403        0.0047093800        0.8458961898
 C         -3.8285565702       -0.6903077602       -0.1185608105
 C         -4.5817252800       -1.0906011002       -1.2066636206
 C         -5.9602961900       -1.1509014604       -1.0815153908
 C         -6.5599277402       -0.8111682605        0.1225079192
 C         -5.7915877803       -0.4081031406        1.2040730893
 C         -4.4114030503       -0.3478867804        1.0861230495
 H         -3.7726884305       -0.0363676804        1.8972071796
 H         -6.2601304605       -0.1406661707        2.1374222093
 H         -7.6331985902       -0.8580176207        0.2176029791
 H         -6.5608906299       -1.4609642404       -1.9212942409
 H         -4.0706657999       -1.3342477101       -2.1234149906
 H         -2.3899040600       -2.8192132301        0.2919008195
 H         -0.9000961499       -4.5252940600        0.9961186795
 H          1.4508886002       -5.1475519198        1.3977354097
 H          3.2732142301       -3.6475045095        0.7216478301
 H          3.0365828501       -1.0846934693       -1.6154592898
 C          4.4018918499       -1.4776114393       -0.0137040896
 C          5.2907938401       -2.3994579892       -0.7926562196
 C          5.5845663199       -0.9308223591       -0.7535318495
 H          6.4345828498       -0.5873307391       -0.1835159493
 H          5.3858813600       -0.3433444191       -1.6381059094
 H          5.9444261001       -3.0656604091       -0.2503538296
 H          4.8993308003       -2.8127350991       -1.7098671397
 H          4.4552959098       -1.5023141894        1.0688190304
