  62
        -98.93696337
 C          1.8751550083        0.0483734859        0.3253227978
 C          2.7577115653        0.7919797985       -0.4930735078
 C          4.0698295375        0.1749809284       -0.7713213449
 C          4.3461231268       -1.0419633579       -0.2742453660
 C          5.6263705069       -1.8196066301       -0.4056719457
 C          6.5460834938       -1.5613604189        0.7998171075
 C          7.4614645833       -0.3452491489        0.6627046619
 H          7.9547891828       -0.1999072305        1.6265712060
 H          8.2385902588       -0.5629995877       -0.0730087218
 C          6.7635063168        0.9581221095        0.2655387865
 H          7.4119230823        1.7866136405        0.5572680325
 H          5.8333075947        1.0628416771        0.8268278410
 C          6.4798718756        1.0559174068       -1.2408181448
 H          7.0353931190        0.2742383895       -1.7586571828
 H          6.8604142556        2.0072681707       -1.6183602472
 C          4.9974119630        0.9849285376       -1.6361411097
 H          4.5713107308        1.9929102993       -1.6294467585
 H          4.9195510417        0.6210406178       -2.6660592016
 H          5.9140200915       -1.4497260373        1.6847065165
 H          7.1735298024       -2.4411876932        0.9568306495
 H          5.3485688004       -2.8757994237       -0.4109906163
 H          6.1269270372       -1.5843360014       -1.3401802914
 O          3.4616168961       -1.7331383668        0.4969727862
 C          2.2251682893       -1.2112356799        0.8203502253
 O          1.5344219191       -1.9505193444        1.5515770403
 H         -1.5510060902       -1.2240856869        0.6555167161
 C         -1.4880383476       -0.6423546766       -0.2523635829
 C         -0.4940474097        0.3151731842       -0.3988952590
 C         -0.4233649617        1.0290772249       -1.5914305176
 C         -1.3261313597        0.7831781245       -2.6089411002
 C         -2.3258988893       -0.1611945072       -2.4532227430
 C         -2.4047901786       -0.8809073283       -1.2677047458
 N         -3.4102834070       -1.8489311065       -1.0792669993
 S         -4.3920428216       -1.7185704043        0.2708200255
 O         -3.6397781637       -2.0090968006        1.4637313452
 O         -5.5185427201       -2.5817300300       -0.0064511733
 C         -4.9102939792       -0.0123995579        0.2608353474
 C         -6.0206124829        0.3398906623       -0.4816322065
 C         -6.3769563403        1.6762931949       -0.5611459413
 C         -5.6128308732        2.6340107578        0.0886406869
 C         -4.5002598653        2.2644602547        0.8285357610
 C         -4.1434463078        0.9284315456        0.9178599838
 H         -3.2881529520        0.6009761621        1.4855948225
 H         -3.9042769608        3.0075566773        1.3335466575
 H         -5.8860959800        3.6750827561        0.0202595100
 H         -7.2443377119        1.9671115843       -1.1315699739
 H         -6.5885501635       -0.4376711940       -0.9664915570
 H         -3.9785282518       -2.0077211880       -1.8996600634
 H         -3.0337807686       -0.3489976761       -3.2464538761
 H         -1.2553364201        1.3381832681       -3.5319440076
 H          0.3620199159        1.7568776566       -1.7215799513
 C          0.4917070421        0.5436831116        0.7222884574
 H          0.1864130687       -0.0911262507        1.5656664580
 C          0.4895012633        1.9869654284        1.1863080656
 C         -0.5708034796        2.4456403787        2.1393517130
 C          0.8446356607        2.2940408789        2.6085378695
 H          1.4215278786        3.1827855752        2.8155899307
 H          1.0810385277        1.4608517409        3.2553126367
 H         -1.2914349635        1.7162721772        2.4784874673
 H         -0.9682723417        3.4422690584        2.0257666920
 H          0.8277297291        2.6849331536        0.4328362554
 O          2.4923132322        1.9237314586       -0.9765245231
