  62
        -98.94604568
 C          1.4546031769        1.0675224434        0.0857355258
 C          2.3799573996        0.7151132420        1.0950961781
 C          3.0076456631       -0.6040876424        0.9524093350
 C          2.6482705954       -1.4074544985       -0.0655154473
 C          3.1762650129       -2.7926042323       -0.3254980626
 C          4.5042385975       -2.8202817865       -1.0947311515
 C          5.7306284286       -2.3843960487       -0.2921433808
 H          5.7729796589       -2.9481188677        0.6404664187
 H          6.6104878305       -2.6584903771       -0.8776034084
 C          5.7885569396       -0.8803860447        0.0097995687
 H          5.1043475601       -0.3481729874       -0.6549479605
 H          6.7931203729       -0.5054833434       -0.1986388704
 C          5.4593714545       -0.5109520129        1.4562324361
 H          5.4935260367        0.5777274329        1.5482767320
 H          6.2170713167       -0.9282430243        2.1232881381
 C          4.0786225429       -0.9834942018        1.9299925030
 H          4.0852551780       -2.0614181495        2.0917890564
 H          3.8539710517       -0.4891616770        2.8786747369
 H          4.6641624915       -3.8472882927       -1.4310962568
 H          4.4075692914       -2.1907719621       -1.9821628228
 H          3.2907608020       -3.3259520522        0.6187545898
 H          2.4230778332       -3.3079217657       -0.9252253851
 O          1.7190411143       -1.0489348342       -0.9906475972
 C          1.1172112705        0.2028262682       -0.9567921071
 O          0.3142775462        0.4127474669       -1.8819654571
 O          2.6591351699        1.4597442439        2.0741286916
 C          0.7639616165        2.4174963274        0.1505676181
 C         -0.7318848380        2.2232884746        0.1865329715
 C         -1.6199002547        2.9463676324       -0.5981465113
 C         -2.9795117921        2.6898261698       -0.5388263944
 C         -3.4824279403        1.7123555775        0.2991317525
 C         -2.6027437923        0.9906279016        1.0959431460
 C         -1.2443540558        1.2548680168        1.0415723457
 H         -0.5630061449        0.6863857891        1.6631572231
 N         -3.1013040479       -0.0236033600        1.9387426987
 S         -4.0301051123       -1.2037952947        1.1914103722
 O         -5.3692782053       -0.7034728463        1.0068831047
 O         -3.9038456964       -2.3744723401        2.0314039517
 C         -3.2578066885       -1.4772733713       -0.3916926513
 C         -2.0239653518       -2.0965369063       -0.4152768728
 C         -1.3884086887       -2.2785828004       -1.6314940970
 C         -1.9897755038       -1.8304574438       -2.7967868774
 C         -3.2274382736       -1.2092976036       -2.7563422635
 C         -3.8708818336       -1.0283443385       -1.5428031035
 H         -4.8344201770       -0.5515983646       -1.4672032332
 H         -3.6890619902       -0.8588558148       -3.6654149073
 H         -1.4823963043       -1.9603752353       -3.7392805321
 H         -0.4185448672       -2.7483338823       -1.6668328342
 H         -1.5830800638       -2.4324838543        0.5107959879
 H         -2.3850941460       -0.4570601206        2.5039641775
 H         -4.5360449716        1.4902064466        0.3484811712
 H         -3.6565959471        3.2558355233       -1.1599906306
 H         -1.2476699060        3.7053450042       -1.2661634285
 H          1.0785220236        2.8647399092        1.1054931872
 C          1.2336819926        3.3063888026       -0.9818379442
 C          1.2635819963        4.7953892781       -0.8139277463
 C          2.5446486362        4.0187822159       -0.8443212698
 H          3.1807485009        4.1025304173       -1.7127311572
 H          3.0862812787        3.8855209922        0.0809700973
 H          1.0224781598        5.4156325270       -1.6640045574
 H          0.9387894898        5.1990787684        0.1331182839
 H          0.9827157539        2.9035370544       -1.9566390014
