  62
        -98.93807492
 C         -1.7738499583       -1.3527602133        0.1439618203
 C         -1.9576877123       -0.3744092090       -0.8606301918
 C         -3.3130624828        0.1976618309       -0.9805623331
 C         -4.2822275321       -0.2171968655       -0.1478071099
 C         -5.6985479925        0.2805491473       -0.0682410860
 C         -5.8242407323        1.3916809034        0.9878670721
 C         -5.5275915047        2.8014607624        0.4777936838
 H         -6.3413712459        3.1256530619       -0.1743553054
 H         -5.5188787354        3.4659076844        1.3449648792
 C         -4.2046297760        2.9605068300       -0.2763274526
 H         -3.9332897355        4.0179827917       -0.2556520762
 H         -3.4156536336        2.4157699337        0.2459280225
 C         -4.2842228944        2.4971509287       -1.7387163345
 H         -5.3309210874        2.3633775183       -2.0115605289
 H         -3.8945431568        3.2844884872       -2.3874839040
 C         -3.4969673386        1.2196559628       -2.0696610307
 H         -3.9597037139        0.7299603029       -2.9328560508
 H         -2.4802436759        1.4891463722       -2.3720021242
 H         -5.1484680176        1.1484195774        1.8120051975
 H         -6.8406948140        1.3836901110        1.3865220123
 H         -6.0437142099        0.6205373223       -1.0401135595
 H         -6.3098672354       -0.5679946238        0.2460316866
 O         -4.0643506736       -1.1557307549        0.8126539971
 C         -2.8265801117       -1.7427305281        0.9793996039
 O         -2.7838861535       -2.5943629452        1.8895627050
 H          0.4647521204        0.4102289613       -0.1627309023
 C          0.8927006318        0.0203442706        0.7489187072
 C          0.5139012776       -1.2382520297        1.1932374298
 C          1.0836745551       -1.7259154374        2.3632758633
 C          2.0101199086       -0.9738402992        3.0655937357
 C          2.3844831076        0.2811643900        2.6186565999
 C          1.8119817252        0.7793599397        1.4565673520
 N          2.2007260970        2.0541609618        0.9784183541
 S          3.7628461632        2.0966123017        0.3679925399
 O          4.6904417816        1.9434479233        1.4597338374
 O          3.8618666190        3.3236678494       -0.3892162746
 C          3.8467732584        0.6819516784       -0.7141471297
 C          4.2841534958       -0.5272075859       -0.2125704330
 C          4.2580832132       -1.6405227928       -1.0364772099
 C          3.7933211076       -1.5261694359       -2.3375112279
 C          3.3535759426       -0.3052749858       -2.8249815467
 C          3.3741102528        0.8105882835       -2.0046310063
 H          3.0412812035        1.7777982257       -2.3464896938
 H          2.9868998551       -0.2208910489       -3.8355190933
 H          3.7735014594       -2.3933564958       -2.9791746513
 H          4.5943724455       -2.5926119850       -0.6588761968
 H          4.6384832321       -0.5727778863        0.8041156532
 H          1.5707433655        2.4007768792        0.2671009681
 H          3.1162716381        0.8753944305        3.1416218991
 H          2.4448760106       -1.3682982992        3.9713596844
 H          0.7904128655       -2.6999414143        2.7266226200
 C         -0.4566702707       -2.0720262087        0.3923952729
 H         -0.7166212959       -2.9535557846        0.9932594458
 C          0.2112107758       -2.5453776213       -0.8860565411
 C          1.1030435301       -3.7471683587       -0.8369867397
 C         -0.2341103105       -3.8326628042       -1.5084781528
 H         -0.2718917789       -3.8972355112       -2.5853630698
 H         -1.0225373197       -4.3801348365       -1.0119334490
 H          1.9878110493       -3.7542083060       -1.4531816737
 H          1.2228672157       -4.2434804003        0.1139365314
 H          0.4865606198       -1.7375450057       -1.5511991465
 O         -1.0467159369        0.0330645759       -1.6323041716
