  62
        -98.94015119
 C          1.6904477984        1.3919701851        0.4081624885
 C          1.3285482013        0.3191584322       -0.4381245381
 C          1.9404786779       -0.9896229939       -0.1477231242
 C          2.7506068446       -1.1218394982        0.9176363484
 C          3.4527631557       -2.3352485878        1.4905378709
 C          3.6286425507       -3.6031806868        0.6583774732
 C          4.5421553775       -3.4522114831       -0.5569628647
 H          5.5636151323       -3.2843182321       -0.2065463993
 H          4.5300350409       -4.3943876448       -1.1092439079
 C          4.1852636610       -2.3136412436       -1.5090919782
 H          4.8968013530       -2.3368732293       -2.3388239324
 H          4.3160641830       -1.3564021271       -1.0002048822
 C          2.7778911153       -2.3741320742       -2.1002648155
 H          2.6142414278       -3.3510617562       -2.5586222324
 H          2.7226328184       -1.6200528517       -2.8895805773
 C          1.6282791620       -2.0954664638       -1.1140793237
 H          0.7599432755       -1.7643681759       -1.6906674607
 H          1.3321859071       -2.9940045599       -0.5768671390
 H          4.0790534133       -4.3475549619        1.3209059653
 H          2.6599020233       -3.9933221996        0.3599311891
 H          4.4360518622       -1.9823131592        1.8183404750
 H          2.8976364830       -2.5927719692        2.4000625217
 O          3.0286171598       -0.0692665151        1.7427105919
 C          2.5064176556        1.1917528569        1.5212163940
 O          2.8371212661        2.0400575141        2.3755653249
 H         -0.6077068799        1.4017430080        1.7166410074
 C         -1.1145594320        1.8868205487        0.8940761321
 C         -0.3878024013        2.6610565012       -0.0030663027
 C         -1.0653856319        3.2717929945       -1.0500723930
 C         -2.4302066078        3.0933671101       -1.2009858916
 C         -3.1403454977        2.2851930940       -0.3326247490
 C         -2.4699795121        1.6697260529        0.7183976863
 N         -3.1353049508        0.8062903842        1.6162809157
 S         -2.6819983151       -0.8081755192        1.5772720151
 O         -3.5184034481       -1.4576878539        2.5647778211
 O         -1.2593901247       -0.9265572387        1.7684314701
 C         -3.1631550198       -1.3588101906       -0.0507170663
 C         -2.3852477097       -1.0162013260       -1.1384587071
 C         -2.8133333285       -1.3877107917       -2.4044237186
 C         -4.0008665188       -2.0850673421       -2.5613816747
 C         -4.7706774129       -2.4196201208       -1.4572265427
 C         -4.3525748527       -2.0490284462       -0.1896847280
 H         -4.9158389900       -2.2872580082        0.6982372258
 H         -5.6935895324       -2.9632459998       -1.5799189607
 H         -4.3269687162       -2.3690636083       -3.5495482830
 H         -2.2100953697       -1.1217337380       -3.2577164784
 H         -1.4625906852       -0.4743715645       -0.9961776396
 H         -4.1435769420        0.8611898945        1.5574442310
 H         -4.1994660798        2.1235599970       -0.4668048003
 H         -2.9432369872        3.5737723019       -2.0200315230
 H         -0.5231912398        3.8711225054       -1.7627080704
 C          1.0988074851        2.7804825015        0.2317617081
 H          1.2436283415        3.2738335196        1.2078896575
 C          1.8120826061        3.6406420682       -0.8011953108
 C          3.2416412894        3.3795745229       -1.1690166158
 C          2.1534327258        3.1262329946       -2.1662279789
 H          2.0635772457        3.8003209600       -3.0055007754
 H          1.8887039545        2.1058396110       -2.3917077049
 H          3.7285501755        2.5299321668       -0.7119270486
 H          3.8943541956        4.2267362918       -1.3181519800
 H          1.5224138309        4.6844848505       -0.7297625065
 O          0.5242075237        0.4326707864       -1.3999515789
