  62
        -98.93195322
 C          2.0185959233        1.5973594249        0.4340638685
 C          2.4793188636        0.7871892655       -0.6287994220
 C          3.2828132312       -0.3974050063       -0.2585557430
 C          3.5159696282       -0.6582402349        1.0392370154
 C          4.2619852492       -1.8130408644        1.6591870104
 C          5.5761361844       -2.2404053796        0.9882860600
 C          5.4789464709       -3.5804805052        0.2566534030
 H          6.4780128912       -4.0173433128        0.1936313547
 H          4.8639649781       -4.2573686423        0.8534188703
 C          4.9169584393       -3.5096309987       -1.1621082414
 H          4.7688230718       -4.5343010019       -1.5109220944
 H          5.6539572790       -3.0450294903       -1.8207074848
 C          3.5971787663       -2.7490897397       -1.3056811000
 H          3.1091338383       -3.0938599896       -2.2203274164
 H          2.9233446454       -2.9874664705       -0.4823826452
 C          3.7756219848       -1.2267414192       -1.4132007929
 H          4.8258252161       -0.9863806390       -1.6009771823
 H          3.2201994524       -0.8538646747       -2.2795080307
 H          6.3292731834       -2.3406316165        1.7714810023
 H          5.9178747426       -1.4604715253        0.3100347217
 H          4.4554893195       -1.5018044023        2.6884149273
 H          3.5797472298       -2.6655911238        1.7169246903
 O          3.0358468924        0.1415420707        2.0341974499
 C          2.2799902404        1.2643820042        1.7654283925
 O          1.9102463762        1.8887014491        2.7797363440
 H          0.0076830931        0.9778842770       -1.3399693953
 C         -0.7085842396        1.4258985650       -0.6664039561
 C         -0.2936815853        2.4279706152        0.2009110749
 C         -1.2292080906        2.9895337804        1.0607142873
 C         -2.5438403420        2.5549555081        1.0528775217
 C         -2.9478551359        1.5449999528        0.1974257798
 C         -2.0182071492        0.9768511586       -0.6631524815
 N         -2.4142530552       -0.0944117693       -1.5046720182
 S         -2.5225469795       -1.5569574282       -0.6681696504
 O         -1.5293667778       -1.6379554421        0.3816056012
 O         -2.4722238338       -2.5908079714       -1.6788162577
 C         -4.1549469895       -1.4953161818        0.0363794652
 C         -4.3084960635       -1.3614043100        1.4020881552
 C         -5.5896370451       -1.2958565634        1.9277608797
 C         -6.6869239042       -1.3637204998        1.0826291721
 C         -6.5150729111       -1.4999154907       -0.2871409852
 C         -5.2373404618       -1.5666193447       -0.8191207773
 H         -5.0554177601       -1.6775097988       -1.8750463291
 H         -7.3710128140       -1.5531771121       -0.9403641645
 H         -7.6822037893       -1.3107694093        1.4948356892
 H         -5.7246913506       -1.1897656773        2.9921626430
 H         -3.4249779529       -1.3070248112        2.0181372082
 H         -1.7716176976       -0.2255174410       -2.2756466706
 H         -3.9674807691        1.1956156283        0.1908119600
 H         -3.2591644165        3.0006524935        1.7267862747
 H         -0.9139207698        3.7563268857        1.7531384426
 C          1.1567135517        2.8359295653        0.2361773601
 H          1.3094806584        3.4397393444        1.1444192895
 C          1.5811628312        3.6854039218       -0.9536753265
 C          0.7360451752        3.8856762106       -2.1726621769
 C          0.9125367197        5.0065131515       -1.1958357597
 H          1.5218475032        5.8518103979       -1.4771149334
 H          0.0706896764        5.2559139604       -0.5675663781
 H         -0.2239939741        3.3958430399       -2.2177036993
 H          1.2410917084        3.9383004496       -3.1251107000
 H          2.6529708804        3.6457403149       -1.1166564970
 O          2.2366710339        1.0146265249       -1.8442578289
