  62
        -98.93995943
 C          2.2457449621        0.8090430975        0.0579826696
 C          2.5062523643       -0.2379350146        0.9735366374
 C          3.1083500815       -1.4529888283        0.4088367221
 C          3.3388208253       -1.5166066169       -0.9156895136
 C          3.9815120054       -2.6758240367       -1.6195168899
 C          5.5043827350       -2.5023033020       -1.7026489148
 C          6.1583353235       -2.1431292550       -0.3684968224
 H          7.2349828619       -2.0799433919       -0.5402042718
 H          5.8228911754       -1.1492897243       -0.0633007446
 C          5.8788040102       -3.1411429481        0.7638308240
 H          5.5289845341       -4.0863557351        0.3472801375
 H          6.8136696208       -3.3451936670        1.2899504594
 C          4.8778778565       -2.6474581337        1.8101035277
 H          4.9205184743       -3.3241598854        2.6677379844
 H          5.1742770014       -1.6558730443        2.1614519232
 C          3.4146238439       -2.5804313244        1.3546857560
 H          2.7988898591       -2.4024699394        2.2414891665
 H          3.1211069167       -3.5383013611        0.9200738332
 H          5.9364473265       -3.4292022768       -2.0840668866
 H          5.7234041075       -1.7055349067       -2.4170826349
 H          3.5753358201       -2.7301467668       -2.6309231563
 H          3.7387275648       -3.5953958331       -1.0905360530
 O          3.0459439768       -0.5024897235       -1.7686829421
 C          2.4939945630        0.6845547423       -1.3095051739
 O          2.2748550710        1.5258111574       -2.2000253029
 O          2.2364966716       -0.1643791444        2.2040920050
 C          1.6097928692        2.0896368307        0.5692771362
 C          0.2407635763        2.2497635314       -0.0467782121
 C         -0.1771282501        3.3903826441       -0.7174040977
 C         -1.4471411778        3.4533064227       -1.2662709954
 C         -2.3251664958        2.3911070343       -1.1579272055
 C         -1.9233948513        1.2509090140       -0.4731843914
 C         -0.6527291971        1.1918204750        0.0769643694
 H         -0.3386350490        0.3018503711        0.6099109187
 N         -2.8038415274        0.1488643742       -0.3615877529
 S         -4.2393040520        0.4013952557        0.4967995210
 O         -4.9531823353        1.4985915637       -0.1018475186
 O         -3.9581840248        0.5209440489        1.9127232583
 C         -5.0887614088       -1.1293145437        0.1688365989
 C         -5.6692636201       -1.3033404292       -1.0727732844
 C         -6.3118537690       -2.4992885609       -1.3493190368
 C         -6.3619201440       -3.4958099240       -0.3856180532
 C         -5.7746434872       -3.3060365669        0.8559306323
 C         -5.1291558859       -2.1121651659        1.1383579401
 H         -4.6650920177       -1.9184766589        2.0922964294
 H         -5.8167125457       -4.0812762349        1.6040582284
 H         -6.8635988042       -4.4256106488       -0.6027578476
 H         -6.7707435430       -2.6507627187       -2.3129966683
 H         -5.6117767459       -0.4993731304       -1.7875400946
 H         -2.3345119037       -0.6426853290        0.0611506744
 H         -3.3164932823        2.4373478425       -1.5767867148
 H         -1.7556218085        4.3435591824       -1.7933289821
 H          0.4922873271        4.2285971740       -0.8187095985
 H          1.4764128760        1.9379737904        1.6511228272
 C          2.5243375510        3.2758058022        0.3541174310
 C          2.4123774714        4.4789808835        1.2406834469
 C          3.5902336901        3.5616179923        1.3676501710
 H          4.5531865467        3.9050283022        1.0206336702
 H          3.6431331608        2.9122914702        2.2295726156
 H          2.5685797238        5.4554338505        0.8078641980
 H          1.6656224654        4.4568851144        2.0201762938
 H          2.7731815926        3.4280130131       -0.6898507573
