  62
        -98.94791440
 C          1.1622822732        1.1208914208        0.0330377766
 C          1.5979454824        0.0937803061        0.9025472728
 C          2.5487084997       -0.8709506162        0.3359560198
 C          2.9126392724       -0.7539289853       -0.9540891136
 C          3.8975338397       -1.6472652334       -1.6500473282
 C          5.3254018441       -1.0935000527       -1.5451489361
 C          5.7318975986       -0.7015083073       -0.1246220811
 H          6.7662071829       -0.3536585337       -0.1668728017
 H          5.1204699618        0.1437290903        0.1992039374
 C          5.6146077496       -1.8350159267        0.9038258952
 H          5.5655467268       -2.7964061777        0.3912058970
 H          6.5151342209       -1.8421571324        1.5214224567
 C          4.4234241396       -1.7072030653        1.8548816971
 H          4.4168326247       -0.7092606299        2.3001527827
 H          4.5574976597       -2.4278102264        2.6659845304
 C          3.0436328648       -1.9674989412        1.2370080906
 H          3.0475161887       -2.9247167229        0.7105688206
 H          2.3204499900       -2.0315240801        2.0557598294
 H          6.0159567617       -1.8463220958       -1.9297253741
 H          5.3994706683       -0.2078221688       -2.1804093719
 H          3.8473132285       -2.6428799591       -1.2127773201
 H          3.6155463192       -1.7119045877       -2.7025836291
 O          2.4539629671        0.2305464224       -1.7679602616
 C          1.5662425046        1.1894131088       -1.3002898802
 O          1.2223363771        2.0300855910       -2.1530556666
 H         -0.9097136994       -0.0218831828       -0.6254388624
 C         -1.5521921790        0.8392395699       -0.7204306035
 C         -1.1398048258        2.0623514391       -0.2117395831
 C         -1.9730561454        3.1622600209       -0.3824060859
 C         -3.1752017979        3.0324500963       -1.0555416963
 C         -3.5831387679        1.8090125122       -1.5556952707
 C         -2.7584843900        0.7025374552       -1.3883936314
 N         -3.1237311141       -0.5554112959       -1.8862622690
 S         -2.6262561678       -1.9518048368       -1.1203842501
 O         -1.2295137087       -2.2042115570       -1.3766872398
 O         -3.5461832656       -2.9611239841       -1.6015425194
 C         -2.9097903614       -1.6560254773        0.6154315340
 C         -4.2149546449       -1.4777613908        1.0328488609
 C         -4.4607958336       -1.2014440191        2.3673862853
 C         -3.4021207222       -1.1001317642        3.2580125609
 C         -2.0991374753       -1.2885182842        2.8255247836
 C         -1.8489129249       -1.5725458529        1.4924121866
 H         -0.8430743906       -1.7161088088        1.1294094154
 H         -1.2658933163       -1.2012467553        3.5046534056
 H         -3.5921262358       -0.8747294317        4.2955346892
 H         -5.4736623041       -1.0600677215        2.7084065534
 H         -5.0120748865       -1.5702544761        0.3133099814
 H         -4.0608873034       -0.6247683045       -2.2528505480
 H         -4.5207108489        1.7102373533       -2.0804786680
 H         -3.8078951281        3.8967295463       -1.1883570999
 H         -1.6760451745        4.1228928508        0.0054801963
 C          0.1646499380        2.1400009028        0.5459522326
 H         -0.0380627934        1.8491534603        1.5887893979
 C          0.7697395636        3.5301607285        0.5385445352
 C          0.4298952885        4.5179236813        1.6135185907
 C          1.7854262525        3.8808662446        1.5834177011
 H          2.6360320543        4.4804133396        1.2958166579
 H          2.0134195984        3.1271447714        2.3231311757
 H          0.3509660790        5.5613018701        1.3473885268
 H         -0.2562173682        4.2034035587        2.3853004807
 H          0.9379285111        3.9015699722       -0.4661018067
 O          1.2035987431       -0.0155242189        2.0954667371
