  62
        -98.93800490
 C         -2.0262190777       -0.9695167234       -0.3629554086
 C         -2.7832871181       -0.5697002664        0.7687582947
 C         -3.3136102683        0.7961176678        0.7554660804
 C         -3.0259936928        1.6065437905       -0.2787198538
 C         -3.4513819494        3.0429051258       -0.4238688025
 C         -4.8634920264        3.2220920114       -0.9980120439
 C         -6.0032506837        2.8619474284       -0.0441135555
 H         -5.8620708867        3.3859218664        0.9015718234
 H         -6.9255352502        3.2377004752       -0.4914597168
 C         -6.1584448022        1.3572283172        0.2168431186
 H         -5.6202173916        0.7975252682       -0.5516097681
 H         -7.2119442179        1.0802843413        0.1361210564
 C         -5.6733093277        0.8983120582        1.5920179523
 H         -5.7965255480       -0.1857793249        1.6543475990
 H         -6.2909459650        1.3534662453        2.3692722903
 C         -4.2025625787        1.2238436329        1.8842704646
 H         -4.0838483783        2.2897804663        2.0779842294
 H         -3.8970727958        0.6686606578        2.7744422051
 H         -4.9698123794        4.2726894561       -1.2780005039
 H         -4.9470452216        2.6252137863       -1.9091981833
 H         -3.3831883086        3.5427192727        0.5429467557
 H         -2.7372020273        3.5087181990       -1.1066067461
 O         -2.2772037498        1.1991717504       -1.3357486716
 C         -1.7639797500       -0.0936679211       -1.4180495608
 O         -1.1318394754       -0.3032466568       -2.4693031906
 O         -3.0070145664       -1.3319867820        1.7480204624
 C         -1.4592671456       -2.3768958448       -0.3081785531
 C         -0.2140179807       -2.4023888046        0.5438199669
 C          0.0156322584       -3.4385765541        1.4416045946
 C          1.1695715764       -3.4637984642        2.2044430647
 C          2.1136735855       -2.4609171081        2.0842352685
 C          1.8846760109       -1.4093582374        1.2023517643
 C          0.7267125345       -1.3880425521        0.4391818785
 H          0.5611169928       -0.5702930776       -0.2470454684
 N          2.8024747928       -0.3525615465        1.1040266296
 S          2.9133329831        0.5204607375       -0.3354686664
 O          1.8509805622        1.4941755667       -0.3684277056
 O          3.0141437255       -0.3864850726       -1.4560237602
 C          4.4736292805        1.3437150658       -0.0741492306
 C          5.6243589556        0.8050337372       -0.6180936405
 C          6.8362993419        1.4353660904       -0.3829219724
 C          6.8774120820        2.5854203722        0.3908324385
 C          5.7140585702        3.1152149921        0.9292856610
 C          4.4990317132        2.4906153323        0.6967492323
 H          3.5677909111        2.8692956499        1.0849781585
 H          5.7489322221        4.0112628208        1.5276629282
 H          7.8214498089        3.0741206732        0.5727409019
 H          7.7414037750        1.0280344762       -0.8035968305
 H          5.5415257862       -0.0852858822       -1.2205025352
 H          3.7103682011       -0.5737685187        1.4890125447
 H          3.0149529553       -2.4790843495        2.6774780402
 H          1.3376433572       -4.2739381052        2.8975189765
 H         -0.7244073548       -4.2178796071        1.5487085340
 H         -2.2214932112       -2.9771320190        0.2165493150
 C         -1.2373207389       -3.0175665594       -1.6691980777
 C          0.1009329550       -3.0822049828       -2.3352684860
 C         -0.5202589341       -4.3302753752       -1.7880133040
 H         -0.9019278762       -5.0623562897       -2.4834243800
 H         -0.0891239916       -4.7496494490       -0.8919379525
 H          0.1321975978       -2.9342482383       -3.4039879404
 H          0.9483298470       -2.6490157283       -1.8248152392
 H         -2.0878398026       -2.8658756473       -2.3262067130
