  62
        -98.94790969
 C         -0.9768270420       -1.0013999385        0.7087461540
 C         -1.5940578709       -0.8929666422       -0.5605117901
 C         -2.2916585961        0.3718692011       -0.8219845639
 C         -2.2540877419        1.3585465433        0.0908399069
 C         -2.8747557946        2.7223844832       -0.0519449132
 C         -4.3656954474        2.7745665158        0.3092243869
 C         -5.3050002081        2.1196703033       -0.7040163267
 H         -6.3209045048        2.4198562915       -0.4396975010
 H         -5.0968274713        2.5152347971       -1.6987109916
 C         -5.2348788187        0.5865408095       -0.7329076490
 H         -4.7483645968        0.2265523142        0.1763661265
 H         -6.2468619863        0.1756698139       -0.7400870902
 C         -4.5032080414        0.0088748616       -1.9446164154
 H         -4.4791001580       -1.0792425073       -1.8450256094
 H         -5.0538479003        0.2513247265       -2.8562915684
 C         -3.0583119365        0.5008762371       -2.1026442494
 H         -3.0455151699        1.5337007595       -2.4518768261
 H         -2.5575986632       -0.1213850385       -2.8489633297
 H         -4.5036855677        2.3087612704        1.2875296830
 H         -4.6414480347        3.8277639044        0.3993715108
 H         -2.7300748235        3.0825793169       -1.0714643504
 H         -2.3337447166        3.3843026366        0.6281815067
 O         -1.6034917975        1.2343534560        1.2787758110
 C         -0.9568596070        0.0554728281        1.6172871808
 O         -0.4030570987        0.0766078899        2.7352216900
 O         -1.5688233269       -1.8033125505       -1.4297349492
 C         -0.2033643961       -2.2567678275        1.0721892167
 C          0.9418780089       -2.4216261925        0.1016602334
 C          1.2788354784       -3.6238036089       -0.5054721411
 C          2.3263533935       -3.6781028180       -1.4095178549
 C          3.0449919979       -2.5426562520       -1.7358785266
 C          2.7234398728       -1.3370379824       -1.1220035537
 C          1.6972034666       -1.2940595070       -0.1945255270
 H          1.4522525067       -0.3565572785        0.2832404840
 N          3.4315291722       -0.1593898257       -1.4049436099
 S          2.6232378261        1.3060475994       -1.4171635147
 O          1.2735323293        1.1810683482       -1.9168790996
 O          3.4954623491        2.1838440276       -2.1714268315
 C          2.6135480134        1.8322027485        0.2825775938
 C          1.4790570018        2.4353216283        0.7867670909
 C          1.4730539183        2.8621117281        2.1045614727
 C          2.6011054620        2.6838340395        2.8895567146
 C          3.7367487330        2.0847744514        2.3658577316
 C          3.7481850217        1.6546300727        1.0488885580
 H          4.6094440298        1.1794139923        0.6097491845
 H          4.6105619473        1.9470308604        2.9822319174
 H          2.5900424852        3.0096637500        3.9176507810
 H          0.5841581308        3.3143075091        2.5143012741
 H          0.6166464345        2.5373310373        0.1454776027
 H          4.1057923202       -0.2293879630       -2.1531921712
 H          3.8439869868       -2.5837023982       -2.4603491502
 H          2.5755267607       -4.6167220290       -1.8809703956
 H          0.7154041899       -4.5147747455       -0.2818076447
 H          0.2197911436       -2.0749460696        2.0712616034
 C         -1.1223688664       -3.4577244522        1.1394112167
 C         -0.8023349496       -4.6019520314        2.0525235795
 C         -1.9351817754       -3.6771675474        2.3787990851
 H         -2.9466857776       -4.0399441147        2.2744661106
 H         -1.8055257097       -2.9720638400        3.1871251133
 H         -1.0388179106       -5.6037017150        1.7268705261
 H          0.0953430501       -4.5305337806        2.6477179680
 H         -1.5926800937       -3.6750102355        0.1874287477
