  62
        -98.94333581
 C         -1.8808072203       -0.8308564193        0.6688882408
 C         -2.2565475703       -0.4340806504       -0.6374330895
 C         -3.6989873703       -0.4622015906       -0.9209958696
 C         -4.5510011203       -0.8854837497        0.0306009208
 C         -6.0454714303       -0.9101697898       -0.1052310293
 C         -6.6676918903        0.3999518107        0.3978906595
 C         -6.0030239402        1.6553768702       -0.1672549315
 H         -6.5429469802        2.5168678706        0.2318905877
 H         -4.9787897502        1.7168793905        0.2080132885
 C         -5.9845981701        1.7283830088       -1.7005150816
 H         -6.2776173500        2.7350483386       -2.0060833425
 H         -6.7212609601        1.0378377985       -2.1126586710
 C         -4.6195451101        1.4504855882       -2.3331583813
 H         -4.6680479700        1.7413061373       -3.3858960515
 H         -3.8598920201        2.0752126686       -1.8562255718
 C         -4.1441890302       -0.0071205718       -2.2822458600
 H         -4.9240245402       -0.6630495021       -2.6742176895
 H         -3.2649993601       -0.0920026224       -2.9274298799
 H         -6.5822245603        0.4280369817        1.4867622995
 H         -7.7284634103        0.4003210505        0.1406517995
 H         -6.3086027403       -1.0728661007       -1.1484491192
 H         -6.4317721504       -1.7381694392        0.4915316714
 O         -4.1467321804       -1.2961246687        1.2604006811
 C         -2.8082388104       -1.2617818584        1.6163211112
 O         -2.5752613405       -1.6328104774        2.7852527015
 H          2.0997199597       -0.0956071499        0.2255536604
 C          1.4762980097        0.7548599603        0.4466506796
 C          0.1714109397        0.5715866908        0.8788520597
 C         -0.5945541402        1.6963535111        1.1735011787
 C         -0.0790933902        2.9669873409        1.0099828376
 C          1.2226936399        3.1448547305        0.5761966275
 C          2.0050258698        2.0306849202        0.3025887585
 N          3.3298554898        2.1744677297       -0.1363877516
 S          4.5197027998        1.1767634102        0.4881982694
 O          4.2306362597        0.7900250614        1.8493126697
 O          5.7527421398        1.9081836800        0.2850599688
 C          4.5277476597       -0.2535868307       -0.5712832694
 C          4.7892501997       -1.4911175502       -0.0177910183
 C          4.8492718596       -2.5994029210       -0.8486288373
 C          4.6470622997       -2.4508887521       -2.2119434974
 C          4.3864777298       -1.2004483226       -2.7520464486
 C          4.3305841698       -0.0878666719       -1.9279048195
 H          4.1282333099        0.8968843978       -2.3146427204
 H          4.2266436399       -1.0893348935       -3.8124682687
 H          4.6910011197       -3.3147340727       -2.8564336467
 H          5.0514739896       -3.5722555106       -0.4290395964
 H          4.9270388696       -1.5638635593        1.0492231118
 H          3.6502475299        3.1291718997       -0.2107156324
 H          1.6290477199        4.1372302703        0.4519970367
 H         -0.6924702201        3.8280105611        1.2302551268
 H         -1.6082948503        1.5611365414        1.5261831088
 C         -0.4186058404       -0.8049804890        1.0707928409
 H         -0.3919240804       -1.0353481081        2.1468264611
 C          0.3361141596       -1.8870632297        0.3242287519
 C          1.4931294896       -2.5915321092        0.9641746125
 C          0.1902899695       -3.3076818693        0.7775090131
 H          0.1303842195       -4.0846538400        0.0305376238
 H         -0.4273162205       -3.4871994885        1.6458017932
 H          2.3268831196       -2.8777372098        0.3409262828
 H          1.7722825195       -2.2918774584        1.9635211123
 H          0.3755706097       -1.7020105306       -0.7432122883
 O         -1.4339220802       -0.0712360812       -1.5173948098
