  62
        -98.94109414
 C         -1.6804290354       -0.3449959647        0.9496218049
 C         -2.9038575538       -0.9869650228        0.6384365231
 C         -4.0675536552       -0.1026668565        0.4649146329
 C         -3.9204663749        1.2272600776        0.5971555004
 C         -5.0080085360        2.2391546892        0.3843437575
 C         -5.0387912481        2.7246484034       -1.0717027227
 C         -5.0206490802        1.5942675085       -2.1007735479
 H         -4.0617957753        1.0738676099       -2.0423915480
 H         -5.0762746154        2.0541417994       -3.0898723426
 C         -6.1591701093        0.5763093794       -1.9460446530
 H         -6.5790872718        0.3679726887       -2.9324266761
 H         -6.9578289082        1.0028407163       -1.3380107221
 C         -5.7322033510       -0.7668844648       -1.3512603967
 H         -4.8708781187       -1.1538909719       -1.9015979100
 H         -6.5532587067       -1.4757383688       -1.4883144519
 C         -5.3832195445       -0.7541225162        0.1423403549
 H         -5.2918579738       -1.7937417692        0.4700805348
 H         -6.1931012238       -0.2866214873        0.7058789791
 H         -4.1653579644        3.3576803666       -1.2440410076
 H         -5.9334523197        3.3337132243       -1.2134259138
 H         -4.8169852807        3.0916768710        1.0382265227
 H         -5.9659172367        1.7970030319        0.6511747367
 O         -2.7319060665        1.8096430018        0.8966116092
 C         -1.5920290436        1.0461576912        1.0723915323
 O         -0.5708687832        1.7106339732        1.3392051307
 O         -3.0470222153       -2.2316511799        0.5059185968
 C         -0.3724293093       -1.0896348901        1.1636724497
 C          0.2935618612       -1.4259372000       -0.1493208638
 C         -0.3010526001       -2.2804914129       -1.0716598114
 C          0.3444257447       -2.5851865759       -2.2557812081
 C          1.5972157342       -2.0658320183       -2.5319520066
 C          2.1991397933       -1.2100780096       -1.6171079283
 C          1.5373282638       -0.8857126470       -0.4412296195
 H          2.0007453945       -0.2070405173        0.2584352069
 N          3.4603627873       -0.6566927180       -1.8733163932
 S          4.5498331635       -0.4020887691       -0.6302791844
 O          5.8382689764       -0.3550712015       -1.2881033299
 O          4.4064118793       -1.3876101057        0.4153604412
 C          4.1564696447        1.2214834053       -0.0178615071
 C          4.0886126558        2.2624082320       -0.9223075816
 C          3.8023039535        3.5351706554       -0.4566378357
 C          3.5925232672        3.7450653604        0.8979155963
 C          3.6688848837        2.6904925218        1.7938227744
 C          3.9544656427        1.4150051382        1.3337203651
 H          4.0171727974        0.5659907666        1.9967172068
 H          3.5012055934        2.8548911709        2.8461738948
 H          3.3656471360        4.7357774333        1.2589764411
 H          3.7406205215        4.3590639538       -1.1493981819
 H          4.2602893663        2.0610595874       -1.9666007378
 H          3.9108836225       -0.9848257636       -2.7147934065
 H          2.1060691192       -2.3181547851       -3.4500250679
 H         -0.1271270883       -3.2458526330       -2.9678039192
 H         -1.2730450116       -2.6950605396       -0.8531692086
 H          0.2845751606       -0.3852318573        1.6919576957
 C         -0.5110982877       -2.3378065087        2.0151271905
 C          0.7282817955       -2.9491488563        2.5940446908
 C         -0.2545725949       -2.2552272645        3.4880002163
 H         -0.8607784715       -2.8542974087        4.1509560600
 H          0.0181482896       -1.2926817072        3.8961365137
 H          0.7959873882       -4.0253139641        2.6427905213
 H          1.6712762937       -2.4629793664        2.3886340136
 H         -1.2932384476       -3.0054701465        1.6798131120
