  62
        -98.94019877
 C         -1.9559879472       -1.2440154704       -0.4512424000
 C         -1.5532093967       -0.0183970758       -1.0307854317
 C         -2.4272827856        1.1450940013       -0.7879759550
 C         -3.5145308131        1.0110786306       -0.0112709303
 C         -4.5667767632        2.0339347567        0.3405998922
 C         -4.1069894757        3.4667114804        0.6339720453
 C         -2.7556816044        3.5781397122        1.3550800181
 H         -2.8714428382        4.2179462873        2.2321964686
 H         -2.4332314942        2.5970505679        1.7097441573
 C         -1.6558472943        4.1766776683        0.4756221376
 H         -2.0679149233        5.0229963008       -0.0794165131
 H         -0.8612332070        4.5594859794        1.1210089003
 C         -1.0061529736        3.1970341657       -0.5000690207
 H         -0.4209091338        2.4649724540        0.0632247524
 H         -0.3053650070        3.7592985436       -1.1231266435
 C         -1.9806320054        2.4354137824       -1.4146169067
 H         -2.8272576161        3.0592185527       -1.6921610332
 H         -1.4421026128        2.1578352720       -2.3248482380
 H         -4.0624563906        4.0342167284       -0.2944214073
 H         -4.8851203245        3.9263858275        1.2460152263
 H         -5.3012758806        2.0539768023       -0.4703751503
 H         -5.0724654289        1.6264191349        1.2197195712
 O         -3.8459742490       -0.1803734156        0.5643504954
 C         -3.0903469102       -1.3190228721        0.3608586983
 O         -3.5315510527       -2.3326768329        0.9411021505
 H          0.9036638342       -0.8839367500       -0.1664490295
 C          0.8823602444       -1.6961171202        0.5403691892
 C         -0.1205518394       -2.6526067092        0.4562114900
 C         -0.1354224677       -3.6935926030        1.3765293189
 C          0.8252892542       -3.7669219193        2.3691965118
 C          1.8000566609       -2.7924820240        2.4731003077
 C          1.8238712116       -1.7445665040        1.5575359235
 N          2.8054028719       -0.7493524696        1.6512453481
 S          2.4728060333        0.8697947743        1.3454138411
 O          3.2603099589        1.5877755363        2.3290353465
 O          1.0549820684        1.1309678797        1.3559500006
 C          3.2076812402        1.1393202707       -0.2539607064
 C          2.4393678108        1.2086505082       -1.3970348029
 C          3.0748251278        1.3934683463       -2.6166013007
 C          4.4545719030        1.5046061850       -2.6736011688
 C          5.2125153566        1.4352212272       -1.5137639156
 C          4.5854962889        1.2508022779       -0.2934477177
 H          5.1336327658        1.2047556035        0.6329264676
 H          6.2861696840        1.5229331010       -1.5584633688
 H          4.9409038510        1.6463862958       -3.6260182525
 H          2.4795743718        1.4438398346       -3.5144625563
 H          1.3664430398        1.1090414116       -1.3387966953
 H          3.4159130324       -0.8432877013        2.4497594653
 H          2.5368118110       -2.8346226184        3.2613537556
 H          0.8043821710       -4.5798245387        3.0793008366
 H         -0.9189790672       -4.4352085121        1.3228758767
 C         -1.1911060567       -2.5507390051       -0.6049074281
 H         -1.9252122067       -3.3450690890       -0.4096440783
 C         -0.6083142463       -2.7710266280       -1.9864845362
 C         -0.3238788153       -4.1717489369       -2.4352199716
 C         -1.4554049570       -3.4029900770       -3.0476706496
 H         -1.3544013702       -3.0511340223       -4.0631800975
 H         -2.4650346120       -3.6814959400       -2.7815299850
 H         -0.5672127413       -4.9749197538       -1.7560826645
 H          0.5576883663       -4.3514295043       -3.0309129893
 H          0.0764640149       -1.9935526564       -2.2958695176
 O         -0.5287126509        0.1253166309       -1.7480431444
