  62
        -98.93679548
 C          1.2662696192        0.5433597705        0.7675588302
 C          2.2158668095        0.7181825908       -0.2695115395
 C          2.9705946698       -0.4848462890       -0.6499815795
 C          2.6847155099       -1.6686251291       -0.0812433497
 C          3.3432773602       -2.9855219090       -0.3922715497
 C          4.6619419201       -3.2196990488        0.3576962306
 C          5.8459705200       -2.3846740785       -0.1316474790
 H          6.7437590100       -2.8032461584        0.3274638612
 H          5.9479040403       -2.5002208584       -1.2111300990
 C          5.7589328397       -0.8937112586        0.2229421512
 H          5.0195065894       -0.7504905288        1.0140998010
 H          6.7202586295       -0.5568746685        0.6171416915
 C          5.4066168698        0.0181362315       -0.9523054988
 H          5.3350432895        1.0434320814       -0.5810531486
 H          6.2058712900       -0.0167423382       -1.6958975086
 C          4.0814300501       -0.3274495786       -1.6442988092
 H          3.8144759601        0.4971312614       -2.3099609991
 H          4.1911352004       -1.2341786885       -2.2392597893
 H          4.4967705897       -3.0308282890        1.4209183806
 H          4.9173396703       -4.2757315187        0.2433857905
 H          2.6341247503       -3.7629042191       -0.0989018400
 H          3.5137142805       -3.0632240288       -1.4666722597
 O          1.7141371597       -1.8090416594        0.8602540100
 C          0.9897968593       -0.7162606896        1.3024409999
 O          0.1367608191       -0.9921541999        2.1723686797
 O          2.4333498195        1.8066153609       -0.8577125893
 C          0.4002177189        1.7000755503        1.2608757101
 C         -0.4048618909        2.1610597903        0.0697759499
 C         -0.1734690408        3.2705151504       -0.7322232798
 C         -0.9365920506        3.4828652905       -1.8694430600
 C         -1.9174964203        2.5892757403       -2.2540672704
 C         -2.1565310103        1.4700257802       -1.4631811006
 C         -1.4280197506        1.2910362602       -0.3013846505
 H         -1.6134163406        0.4185113100        0.3054969494
 N         -3.1348704600        0.5300437900       -1.8144013810
 S         -2.9747260999       -1.0878229900       -1.4080818012
 O         -1.5918288498       -1.4978090497       -1.3306704309
 O         -3.7864298395       -1.7758717400       -2.3918031515
 C         -3.7932265003       -1.1971210303        0.1695449986
 C         -5.1503098103       -0.9345298906        0.1874465082
 C         -5.8320496906       -0.9957016309        1.3908642280
 C         -5.1483053309       -1.3173111709        2.5543132782
 C         -3.7886526008       -1.5819547007        2.5193327985
 C         -3.0997646805       -1.5244220804        1.3165650087
 H         -2.0373623305       -1.7150357702        1.2723492990
 H         -3.2477025410       -1.8281266607        3.4192360086
 H         -5.6762136911       -1.3627483911        3.4938166080
 H         -6.8902641707       -0.7920130311        1.4200522378
 H         -5.6425464101       -0.6976928206       -0.7410108319
 H         -3.5435422698        0.6565589801       -2.7283365011
 H         -2.4844071201        2.7450229103       -3.1592133405
 H         -0.7410058906        4.3507618806       -2.4812852299
 H          0.6199110790        3.9598311906       -0.5083947495
 H         -0.3171744912        1.2313408301        1.9531502698
 C          1.1946538985        2.6741072703        2.1163811504
 C          2.1729461784        3.6951781506        1.6237598309
 C          0.8784603382        4.1346089602        2.2396398306
 H          0.9098048678        4.5779469301        3.2239073806
 H          0.1108763983        4.5414396702        1.6012704004
 H          3.0794967183        3.8261905006        2.1981298411
 H          2.3295106987        3.7829424707        0.5618797209
 H          1.4836951783        2.1753594702        3.0394740105
