  62
        -98.93833743
 C          2.2531089292       -0.9958249476       -0.3851608464
 C          2.4800019821       -0.1102627021        0.6935234776
 C          3.3438729806        1.0531749168        0.4172464266
 C          3.8462597094        1.2268493496       -0.8194076226
 C          4.7150616237        2.3243923380       -1.3984795569
 C          5.4399033632        3.3109216266       -0.4865517313
 C          6.5525827212        2.6975443936        0.3628312376
 H          7.3732082098        2.4065926972       -0.2977915915
 H          6.9283274591        3.4675057448        1.0401465709
 C          6.1593763379        1.4677157214        1.1774792417
 H          5.8764776872        0.6562823841        0.5037571808
 H          7.0438012153        1.1348882021        1.7274592209
 C          5.0373456919        1.6856468511        2.1906647884
 H          5.2916662817        2.5198886072        2.8472066565
 H          4.9702485016        0.7841993088        2.8054816257
 C          3.6434868760        1.9404015864        1.5910224540
 H          3.5113098939        2.9866574262        1.3261718527
 H          2.8975731431        1.6981924408        2.3536930393
 H          4.7271477791        3.8375241884        0.1410748929
 H          5.8980439543        4.0582804710       -1.1401616765
 H          5.4496250583        1.8175394460       -2.0324866048
 H          4.0658695169        2.8915391947       -2.0750028891
 O          3.5634499419        0.3625251529       -1.8401168528
 C          2.7761299285       -0.7595771992       -1.6536634551
 O          2.6118328276       -1.4503247710       -2.6811460734
 O          1.9813962983       -0.2739429593        1.8365983337
 C          1.3939357971       -2.2304157373       -0.1858299779
 C          0.0014917566       -1.8371802290        0.2471155156
 C         -0.6886258432       -2.4745817779        1.2694539354
 C         -1.9714054756       -2.0753642939        1.6038191060
 C         -2.5929820596       -1.0406663830        0.9301201717
 C         -1.9178700411       -0.4053909839       -0.1042726687
 C         -0.6355446811       -0.8108893563       -0.4399771593
 H         -0.1114333018       -0.3168918305       -1.2501924510
 N         -2.5369983426        0.6543086508       -0.7909755366
 S         -4.0825568920        0.4075960742       -1.4006535732
 O         -4.3090310444       -0.9830479439       -1.7200264574
 O         -4.2121214496        1.3474373536       -2.4929984837
 C         -5.1532805041        0.9130874830       -0.0711094205
 C         -6.1106311408        0.0431115457        0.4127031197
 C         -6.9382089895        0.4633954086        1.4424452917
 C         -6.7949643498        1.7390419516        1.9662003117
 C         -5.8301781823        2.6015406581        1.4670113262
 C         -5.0005344296        2.1882111394        0.4370466074
 H         -4.2409453521        2.8277198909        0.0191315543
 H         -5.7214570329        3.5927886249        1.8768064576
 H         -7.4391631800        2.0636673240        2.7679958859
 H         -7.6890896190       -0.2051966370        1.8316307074
 H         -6.1810898908       -0.9413618095       -0.0216500012
 H         -1.9464334509        1.0831530031       -1.4887310299
 H         -3.5886254987       -0.7228578668        1.1927642198
 H         -2.4931280737       -2.5754196064        2.4054098672
 H         -0.2211728366       -3.2821959820        1.8081179734
 H          1.3154542712       -2.7078664770       -1.1743764023
 C          2.0758860043       -3.1911628452        0.7661945796
 C          1.8605642932       -4.6679815561        0.6342833810
 C          3.1751584465       -4.0643490427        0.2432556016
 H          4.0349459287       -4.2440291307        0.8710680668
 H          3.4120555602       -3.9857674122       -0.8082816753
 H          1.8210629616       -5.2663755903        1.5319327611
 H          1.2067298622       -5.0099149335       -0.1539357723
 H          2.1972204392       -2.7750533353        1.7595115449
