  62
        -98.94582721
 C         -2.4698200287       -1.1149021150       -0.0604363371
 C         -3.0615134382       -0.2089081335        0.8516195495
 C         -3.5158979070        1.0658868712        0.2878588683
 C         -3.3565783835        1.3082416558       -1.0261414879
 C         -3.7734366942        2.5588909437       -1.7511094346
 C         -2.7387535201        3.6902195393       -1.6748308563
 C         -2.6289257531        4.3793633033       -0.3141304306
 H         -2.0337718463        5.2829279017       -0.4598245851
 H         -3.6204660838        4.6901443858        0.0170230366
 C         -1.9648410159        3.5257254883        0.7757272717
 H         -1.4146718618        2.7028013381        0.3099836108
 H         -1.2267067383        4.1278443504        1.3117389857
 C         -2.9346082952        2.9615998911        1.8152315245
 H         -2.3643800435        2.3460268098        2.5162676765
 H         -3.3828577150        3.7830825495        2.3784446256
 C         -4.0597451577        2.0972419692        1.2300317387
 H         -4.7933787992        2.7257677185        0.7265369166
 H         -4.5508963369        1.5721361815        2.0529157499
 H         -1.7613434763        3.2908934979       -1.9580360982
 H         -3.0197260686        4.4411142995       -2.4169065587
 H         -4.7291529567        2.9099178136       -1.3612553946
 H         -3.9035160886        2.2822074138       -2.7994207539
 O         -2.7911440296        0.4085342846       -1.8725831833
 C         -2.2926072230       -0.8008771431       -1.4085084339
 O         -1.7413351178       -1.4944311642       -2.2831205645
 O         -3.1934682873       -0.4503590422        2.0830320149
 C         -1.8983245165       -2.4177049336        0.4749700128
 C         -0.3942453979       -2.3339962916        0.3831761527
 C          0.3978172796       -3.2332495649       -0.3164395473
 C          1.7665037476       -3.0389965877       -0.4036110324
 C          2.3716621182       -1.9518961833        0.2001536514
 C          1.5879512830       -1.0518038622        0.9108647097
 C          0.2225009505       -1.2533536583        1.0040186566
 H         -0.3864734899       -0.5443600939        1.5526983620
 N          2.1962744932        0.0766004320        1.5129701163
 S          2.6839360082        1.2511075699        0.4043025594
 O          2.7878872781        2.4782134104        1.1643451725
 O          1.8103320412        1.2840051801       -0.7480959989
 C          4.3120625429        0.7099480870       -0.0652848759
 C          5.2908151891        0.6811190672        0.9093040703
 C          6.5617309093        0.2479817302        0.5672746431
 C          6.8303277572       -0.1447775442       -0.7358191005
 C          5.8369756056       -0.1074867328       -1.7025557907
 C          4.5625875303        0.3234331161       -1.3668339149
 H          3.7556140694        0.3618841403       -2.0812688600
 H          6.0471726663       -0.4139160473       -2.7146599332
 H          7.8198711120       -0.4828920379       -0.9999686203
 H          7.3368112023        0.2166439084        1.3158709231
 H          5.0374628940        0.9994688556        1.9066759973
 H          1.5942923319        0.5170565673        2.1963215645
 H          3.4356760278       -1.7954963154        0.1285407554
 H          2.3695735114       -3.7427763255       -0.9565072131
 H         -0.0580683262       -4.0773289297       -0.8069015389
 H         -2.1743912402       -2.4400571450        1.5395800007
 C         -2.4975352780       -3.6239196297       -0.2118614253
 C         -2.4791713970       -4.9561479462        0.4747379331
 C         -3.7685855847       -4.2079801451        0.3251547026
 H         -4.5023598371       -4.5755474523       -0.3761965016
 H         -4.1975967170       -3.7449100621        1.2018459874
 H         -2.3294199284       -5.8421433224       -0.1231221610
 H         -2.0328123475       -5.0050519241        1.4563540796
 H         -2.3754292724       -3.5981869047       -1.2881711342
