  62
        -98.93949378
 C         -1.6159358859       -1.4768399415       -0.1755350658
 C         -1.3249377741       -0.1126730459       -0.4326749687
 C         -2.4895306175        0.7599683322       -0.6631576417
 C         -3.7308934179        0.2517339790       -0.5781590151
 C         -4.9969245989        1.0447648369       -0.7198340712
 C         -5.4694664136        1.5821284990        0.6384573262
 C         -4.3744672606        2.2823997331        1.4438063854
 H         -4.8312880576        2.6440041554        2.3676921583
 H         -3.6139965911        1.5510910279        1.7281839408
 C         -3.7001433847        3.4535471729        0.7156910810
 H         -3.6133486104        4.2936555612        1.4080653653
 H         -4.3252125653        3.7821034054       -0.1156225062
 C         -2.2909233060        3.1540362678        0.2008479353
 H         -1.8327129886        4.0994414109       -0.1032711580
 H         -1.6797729285        2.7447339951        1.0102408053
 C         -2.2096796916        2.1985022300       -0.9957568689
 H         -2.8741410920        2.5465221390       -1.7895283957
 H         -1.1811223699        2.2249463339       -1.3675378566
 H         -5.8456141907        0.7446066056        1.2305464073
 H         -6.2953623235        2.2749208235        0.4671854984
 H         -4.8278710542        1.8696565751       -1.4092459645
 H         -5.7689411352        0.3916471321       -1.1300309434
 O         -3.9730424596       -1.0534433612       -0.2950660361
 C         -2.9317666951       -1.9411867135       -0.0807184681
 O         -3.3028079278       -3.1022764955        0.1845331621
 H          1.8788006687       -1.2151094212       -0.1156489151
 C          1.5794665180       -1.3682487981        0.9070654842
 C          0.3832743206       -2.0125235431        1.1861812753
 C          0.0070657927       -2.1838392624        2.5145826665
 C          0.8141189758       -1.7317392325        3.5419348287
 C          2.0015571133       -1.0803679661        3.2591385273
 C          2.3770659145       -0.8877873759        1.9359330999
 N          3.5760679306       -0.2151621846        1.6078720711
 S          3.3959614883        1.3009206897        0.8911515035
 O          4.7050050961        1.9132509118        1.0284227620
 O          2.3103801580        2.0417312101        1.4934899650
 C          3.1067406639        0.9908321167       -0.8332258653
 C          2.1698025612        1.7442982226       -1.5067809086
 C          1.9946412205        1.5306675871       -2.8650304848
 C          2.7582707478        0.5774585476       -3.5189761720
 C          3.7036006087       -0.1647705169       -2.8264165746
 C          3.8845857368        0.0435301167       -1.4692429295
 H          4.6054108627       -0.5142606271       -0.8942895222
 H          4.2967422510       -0.9044763790       -3.3403312232
 H          2.6139343757        0.4104715098       -4.5750742776
 H          1.2581908244        2.1041999491       -3.4057133196
 H          1.5871658248        2.4626567059       -0.9543242868
 H          4.1996584683       -0.1103819365        2.3981503211
 H          2.6309480412       -0.7136048351        4.0569253839
 H          0.5139932352       -1.8798214618        4.5685599386
 H         -0.9302317907       -2.6776075997        2.7334059678
 C         -0.5292325095       -2.5064637559        0.0918283288
 H         -1.0689635746       -3.3860259571        0.4773689096
 C          0.2333353618       -2.9763293819       -1.1384749430
 C         -0.4899514311       -3.2272194980       -2.4277269074
 C          0.5095260208       -2.1156730836       -2.3324642249
 H          1.4595126419       -2.2376509712       -2.8317735791
 H          0.1557208090       -1.0979165755       -2.3222573835
 H         -0.2363677503       -4.1061377348       -3.0008511490
 H         -1.5389360802       -2.9696082454       -2.4623017810
 H          1.0061602514       -3.6912705514       -0.8720453127
 O         -0.1662758557        0.3697797644       -0.4844787438
