  62
        -98.93164325
 C          2.3064796399        1.0385533566       -0.0240624738
 C          3.6696724546        1.1664178824        0.3411063904
 C          4.6263805176        0.2141808050       -0.2550367145
 C          4.1563056734       -0.7374829234       -1.0820300065
 C          4.9197458001       -1.8401439965       -1.7661256214
 C          5.2880723488       -2.9851820559       -0.8090007682
 C          5.8276442559       -2.5405820187        0.5479885953
 H          5.9487872106       -3.4346736912        1.1653698687
 H          5.0852723251       -1.9083076160        1.0388117779
 C          7.1700784681       -1.8140637540        0.5091524344
 H          7.9163308482       -2.4655251677        0.0489877934
 H          7.4741229111       -1.6408196779        1.5446259905
 C          7.1830729043       -0.4688268137       -0.2200280598
 H          7.2040559179       -0.6064204078       -1.2977909207
 H          8.1163416716        0.0358220840        0.0463105876
 C          6.0515126859        0.4775450229        0.1683942740
 H          6.2905288384        1.4793305959       -0.2089193740
 H          6.0278858616        0.5804112143        1.2592544864
 H          6.0206968075       -3.6254855906       -1.3032288813
 H          4.3873668399       -3.5780058370       -0.6304699253
 H          5.8055647296       -1.4381280282       -2.2488195168
 H          4.2658421715       -2.2366502285       -2.5461398164
 O          2.8313899267       -0.8444791850       -1.3826013380
 C          1.8749438570        0.0199269822       -0.8746890706
 O          0.7182539937       -0.2302747595       -1.2631850506
 O          4.0820459743        2.0446015482        1.1458695176
 C          1.3215808243        2.0050181897        0.6111177354
 C          0.1832218425        1.2333454751        1.2271665535
 C          0.3939760921        0.5589434864        2.4260802708
 C         -0.6135952754       -0.1957032116        2.9954882170
 C         -1.8507855114       -0.2967005974        2.3829088011
 C         -2.0661970313        0.3585977916        1.1780562141
 C         -1.0547251035        1.1281883767        0.6149760886
 H         -1.2230659707        1.6205370955       -0.3303927818
 N         -3.3233753479        0.2919466366        0.5413700432
 S         -4.1104671793       -1.1859342116        0.3357731468
 O         -4.3436137768       -1.7787713693        1.6285572927
 O         -3.4189345240       -2.0151080954       -0.6278334836
 C         -5.6539154325       -0.6099102231       -0.3441302465
 C         -5.8783035467       -0.6924868556       -1.7045870246
 C         -7.0762731840       -0.2182595315       -2.2163672826
 C         -8.0220913947        0.3301668795       -1.3635970501
 C         -7.7817820910        0.4067669166        0.0004075913
 C         -6.5869854715       -0.0665149953        0.5181371602
 H         -6.3596097895       -0.0352028989        1.5706753316
 H         -8.5205252634        0.8325304054        0.6600900979
 H         -8.9533286944        0.6979524518       -1.7646448317
 H         -7.2663607704       -0.2786885475       -3.2759615389
 H         -5.1171234448       -1.1329468320       -2.3288833360
 H         -3.2944524231        0.7568420974       -0.3573423565
 H         -2.6365080900       -0.8951386674        2.8127066360
 H         -0.4375065144       -0.7138181042        3.9264794253
 H          1.3636643400        0.6257678351        2.9007528011
 H          1.8942552249        2.4748389724        1.4273295869
 C          0.8584537242        3.1359398836       -0.2943824153
 C          1.8122609989        3.7779821130       -1.2558331977
 C          0.6539278594        2.9795506608       -1.7702591964
 H         -0.1679485705        3.5109608787       -2.2283232233
 H          0.8453645558        2.0130973870       -2.2093263377
 H          1.7899707553        4.8515247481       -1.3667434647
 H          2.8010057223        3.3495619498       -1.3331542276
 H          0.1716626506        3.8012101749        0.2206608863
