  62
        -98.93067776
 C         -2.3743015541       -1.1792896177        0.1427829094
 C         -2.5041880654        0.1005256198       -0.4444160534
 C         -3.8817771377        0.5866718130       -0.6823557900
 C         -4.9198127935       -0.1912998746       -0.3261499213
 C         -6.3918309243        0.1042175313       -0.4385878483
 C         -6.8831270952        1.0826910294        0.6407871608
 C         -5.9685550264        2.2796727359        0.8876554075
 H         -6.3652051911        2.8292235571        1.7454447818
 H         -4.9751278157        1.9215745403        1.1643503341
 C         -5.8488852836        3.2577270199       -0.2785536663
 H         -6.8403138259        3.6448066600       -0.5243217963
 H         -5.2395470357        4.0979387898        0.0639971733
 C         -5.2150876468        2.7020011026       -1.5554531626
 H         -5.9202156016        2.0866769967       -2.1076972614
 H         -4.9781105747        3.5547237030       -2.1984632847
 C         -3.9080287778        1.9445134943       -1.3420813332
 H         -3.4216526963        1.8082055031       -2.3159182937
 H         -3.2191631341        2.5712901842       -0.7641866463
 H         -6.9704024727        0.5316961934        1.5803399451
 H         -7.8781595015        1.4329372094        0.3614724702
 H         -6.6230359656        0.4742788427       -1.4329531337
 H         -6.9124937039       -0.8470257112       -0.3080233343
 O         -4.7450223315       -1.4092953388        0.2636250104
 C         -3.4920025296       -1.9259842912        0.5214422787
 O         -3.5001375095       -3.0372617652        1.0885082561
 H          1.4218012851       -0.8111906434       -0.4502319311
 C          1.1074623742       -0.3965613048        0.4928446134
 C         -0.1002747073       -0.7635812269        1.0624430432
 C         -0.4751462538       -0.1735781935        2.2675794087
 C          0.3363551167        0.7605648033        2.8803377987
 C          1.5518262829        1.1098598571        2.3179276236
 C          1.9329748513        0.5301729004        1.1145532500
 N          3.1489581384        0.8758843765        0.5033956204
 S          4.0013159021       -0.3329889480       -0.3082846163
 O          3.5253554403       -0.4203927205       -1.6658815289
 O          3.9699590840       -1.5587656234        0.4584589444
 C          5.6452578405        0.3598355613       -0.2946481556
 C          6.5409122846       -0.0406749901        0.6788638438
 C          7.8074320203        0.5221841343        0.6973012539
 C          8.1540450963        1.4728415202       -0.2509788887
 C          7.2444656653        1.8646457117       -1.2221952519
 C          5.9768344672        1.3052024570       -1.2470358171
 H          5.2403397496        1.5711370936       -1.9874401959
 H          7.5185512932        2.6017488382       -1.9596441168
 H          9.1403915196        1.9088893516       -0.2351595718
 H          8.5176273923        0.2173398835        1.4489557727
 H          6.2300552901       -0.7894484981        1.3896369958
 H          3.7497399649        1.4282930499        1.0994191498
 H          2.1916139490        1.8336987187        2.7997386369
 H          0.0269804124        1.2133972049        3.8105865826
 H         -1.4207503067       -0.4552331765        2.7123557554
 C         -1.0175196847       -1.7901221876        0.4446515421
 H         -1.2168593734       -2.5595761080        1.2103029088
 C         -0.3862120887       -2.5120035492       -0.7365151943
 C         -1.2279232962       -3.1617483693       -1.7925814814
 C         -0.4128162131       -1.9497258992       -2.1244848180
 H          0.4683520181       -2.0679157973       -2.7390094395
 H         -0.9197175574       -1.0090603499       -2.2707738082
 H         -0.9129061766       -4.1185644453       -2.1809471373
 H         -2.3000358836       -3.0524584119       -1.7148835118
 H          0.5165324543       -3.0440384393       -0.4476545760
 O         -1.5275199386        0.8286281841       -0.7607435333
