  62
        -98.93820201
 C         -1.7727464691       -0.2332685600       -0.8794356494
 C         -2.9301126192        0.5728663000       -1.0208716492
 C         -4.2104130591       -0.0867696502       -0.7082284591
 C         -4.2213580790       -1.3731832102       -0.3183524892
 C         -5.4457599489       -2.1378848104        0.0920955109
 C         -5.6904189687       -2.0242416806        1.6034098809
 C         -5.6359069387       -0.5908807706        2.1321423911
 H         -5.8519811586       -0.6304360807        3.2020191311
 H         -4.6176932288       -0.2098444805        2.0245209510
 C         -6.6133720289        0.3755528294        1.4486762913
 H         -7.1054406088        0.9771501493        2.2159083814
 H         -7.3908221189       -0.1879153106        0.9314588713
 C         -5.9591556691        1.3512991095        0.4688300513
 H         -6.6935013492        2.1196640795        0.2124811115
 H         -5.1193232591        1.8525024996        0.9566798112
 C         -5.4579032792        0.7404203197       -0.8458361588
 H         -6.2571158892        0.1588475697       -1.3096879488
 H         -5.1980315294        1.5649366198       -1.5163390688
 H         -4.9275796785       -2.6091466905        2.1224400608
 H         -6.6652737586       -2.4603959307        1.8290516810
 H         -6.3060916990       -1.7579531904       -0.4554563890
 H         -5.2975493388       -3.1880296103       -0.1650241093
 O         -3.0922289689       -2.1184446401       -0.2055270094
 C         -1.8509335690       -1.5687460800       -0.4735338295
 O         -0.8994184089       -2.3621400899       -0.3259575498
 H          2.1174635509       -0.0799688597       -0.1881046199
 C          1.5597356810        0.6279752002        0.4050596902
 C          0.2440163509        0.9137153501        0.0722330004
 C         -0.4689160491        1.8043582000        0.8676945606
 C          0.1294539610        2.3932509299        1.9668160706
 C          1.4522432211        2.1294624500        2.2763629104
 C          2.1748677310        1.2446948601        1.4852382702
 N          3.5182664211        0.9555080902        1.7605448700
 S          4.6009383110        0.8109429904        0.4888795798
 O          5.8898550110        1.1114263205        1.0735341197
 O          4.2032746507        1.6246562305       -0.6351645000
 C          4.5511307210       -0.9145490095        0.0573855397
 C          4.8029682712       -1.8426241896        1.0482769296
 C          4.7824328713       -3.1893062296        0.7241328294
 C          4.5135717612       -3.5829108895       -0.5782151906
 C          4.2661162310       -2.6386757994       -1.5624152905
 C          4.2853768609       -1.2898798094       -1.2443952903
 H          4.0932457107       -0.5237862194       -1.9796561502
 H          4.0545922509       -2.9462852193       -2.5740158005
 H          4.4951190412       -4.6318368294       -0.8287393707
 H          4.9735251015       -3.9278699396        1.4859152893
 H          5.0117481114       -1.4976151897        2.0471711996
 H          3.9138717512        1.4677470402        2.5353582000
 H          1.9225545711        2.6042239199        3.1242001204
 H         -0.4354004190        3.0794376298        2.5800025907
 H         -1.4900759691        2.0402001199        0.6097313808
 C         -0.3653019392        0.2719412102       -1.1476242696
 H          0.2262971008       -0.6312665397       -1.3681217497
 C         -0.2721942795        1.1730806203       -2.3722995395
 C         -0.0932224296        2.6561079303       -2.2992684093
 C          1.0379976104        1.7916649405       -2.7640635396
 H          1.3041553003        1.8097273706       -3.8105590596
 H          1.8818988005        1.6718761205       -2.0992067397
 H         -0.6229785497        3.2608891104       -3.0193319592
 H         -0.0177705295        3.1124296802       -1.3248296693
 H         -0.8940864395        0.8076129403       -3.1838282894
 O         -2.9215721294        1.7769396600       -1.3814222191
