  62
        -98.93819652
 C         -1.7451267080       -0.0951806123       -0.9247519936
 C         -2.9258903270        0.6877792275       -0.9607709561
 C         -4.1793980633       -0.0334239724       -0.6773671818
 C         -4.1466273996       -1.3512586287       -0.4140406399
 C         -5.3392105863       -2.1870164293       -0.0512845132
 C         -5.5439365506       -2.2313868560        1.4694011503
 C         -5.5127349502       -0.8563929991        2.1368033370
 H         -5.6996512471       -1.0076621531        3.2022043413
 H         -4.5079467093       -0.4377297055        2.0436448719
 C         -6.5325481738        0.1446245937        1.5760487313
 H         -7.0185668107        0.6540266380        2.4109105421
 H         -7.3093800148       -0.3868889536        1.0251682289
 C         -5.9305307451        1.2302740683        0.6819620443
 H         -5.0903509131        1.7036778917        1.1962837901
 H         -6.6909724870        1.9994756784        0.5224163985
 C         -5.4509935260        0.7677477737       -0.6997440170
 H         -6.2478252192        0.2130159898       -1.1992421984
 H         -5.2312779065        1.6619079797       -1.2905899595
 H         -4.7512456711       -2.8421444367        1.9075941283
 H         -6.4999587909       -2.7163197493        1.6751485189
 H         -5.1714479928       -3.2017229353       -0.4161910275
 H         -6.2239475390       -1.7788424981       -0.5359537062
 O         -2.9961993956       -2.0719947326       -0.4012993629
 C         -1.7771688836       -1.4643980820       -0.6438970876
 O         -0.8014183548       -2.2402602129       -0.5929973309
 O         -2.9571916040        1.9196113083       -1.2095689994
 C         -0.3593373203        0.4715957954       -1.1818136110
 C          0.2611471853        1.0203781608        0.0768407646
 C         -0.4386406649        1.8651771898        0.9321968474
 C          0.1702067357        2.3700204005        2.0667230480
 C          1.4878922536        2.0624844817        2.3577390922
 C          2.1953902249        1.2184579545        1.5101195591
 C          1.5715092361        0.6907656653        0.3884275795
 H          2.1175210945        0.0185942661       -0.2547126531
 N          3.5279416190        0.8783805279        1.7748356849
 S          4.6129790417        0.7009705786        0.5121163459
 O          5.9102561679        0.9027477503        1.1201788851
 O          4.2841813017        1.5699656613       -0.5928953976
 C          4.4563477447       -1.0055889102        0.0330207430
 C          4.6035598787       -1.9730760785        1.0070246663
 C          4.4937824951       -3.3062899317        0.6472749719
 C          4.2411237650       -3.6477168499       -0.6728022182
 C          4.0999489865       -2.6646889201       -1.6397169045
 C          4.2094774157       -1.3291819885       -1.2861451265
 H          4.1000484617       -0.5335688864       -2.0069127786
 H          3.9007870383       -2.9317154217       -2.6652498051
 H          4.1517005253       -4.6860136265       -0.9507492197
 H          4.6017403992       -4.0749617108        1.3954826187
 H          4.8011301594       -1.6689182184        2.0213577861
 H          3.9396112388        1.3396652039        2.5725968749
 H          1.9654696041        2.4710892818        3.2353508888
 H         -0.3826667830        3.0236264549        2.7247860524
 H         -1.4566260402        2.1317173121        0.6921965555
 H          0.2490529386       -0.3929230616       -1.4928603077
 C         -0.3191568912        1.4753186521       -2.3269168710
 C         -0.1302674095        2.9468438430       -2.1371089241
 C          0.9788583148        2.1220249112       -2.7137951449
 H          1.2093120047        2.2272035132       -3.7635346086
 H          1.8435742970        1.9393331098       -2.0910085376
 H         -0.6822506271        3.6094499062       -2.7861397676
 H         -0.0159044037        3.3222574051       -1.1325374772
 H         -0.9732899493        1.1794595642       -3.1413025312
