  62
        -98.94486940
 C         -1.8739952971       -1.0624272045       -0.2150490763
 C         -3.0234737406       -1.1669259065        0.6139981678
 C         -4.2539783838       -0.5427697403        0.1141356381
 C         -4.2374539187        0.0694633140       -1.0834571121
 C         -5.4019286850        0.7903113021       -1.6965794304
 C         -5.4013895089        2.2764037253       -1.3117926053
 C         -5.2243991547        2.5272298570        0.1858791796
 H         -4.2248990244        2.2039549076        0.4865451883
 H         -5.2717409894        3.6071708528        0.3422893617
 C         -6.2687679170        1.8356894595        1.0734352259
 H         -6.6171583800        2.5486790475        1.8236224037
 H         -7.1333474643        1.5489663515        0.4736288540
 C         -5.7480722518        0.6120547330        1.8297927956
 H         -6.4902452858        0.3379299677        2.5842587933
 H         -4.8266485706        0.8723395697        2.3569957511
 C         -5.4804398981       -0.6347474525        0.9774031484
 H         -5.3047526572       -1.4717247997        1.6594287577
 H         -6.3607152172       -0.8628463998        0.3729210450
 H         -6.3400368037        2.7203491930       -1.6483992720
 H         -4.5830563620        2.7712229205       -1.8401920571
 H         -6.3266748251        0.3197945906       -1.3681443542
 H         -5.3270116590        0.7053031953       -2.7820445196
 O         -3.1271569413        0.1374393247       -1.8574326644
 C         -1.9196935304       -0.4097208331       -1.4467943182
 O         -0.9989425654       -0.2398219853       -2.2725001439
 O         -3.0187221543       -1.7658582022        1.7222006144
 C         -0.6026157635       -1.7084906541        0.3102521719
 C          0.3410857583       -0.6896740747        0.9029812400
 C          0.6792280081       -0.7271718347        2.2504463894
 C          1.5724170056        0.1882022531        2.7807628269
 C          2.1468607265        1.1573178225        1.9783632028
 C          1.8088114540        1.2062727281        0.6321229027
 C          0.9187751152        0.2850138315        0.1014739883
 H          0.6577511714        0.3324385391       -0.9452819679
 N          2.4048620987        2.1792068809       -0.1985873387
 S          4.0792036416        2.1062368450       -0.2753903364
 O          4.6341938184        2.7251184650        0.9022873243
 O          4.4423746150        2.7080043968       -1.5386183451
 C          4.4405432267        0.3596634047       -0.2742194554
 C          4.1316038303       -0.3666179629       -1.4070780229
 C          4.3280955668       -1.7375439887       -1.3982458064
 C          4.8190405367       -2.3565509513       -0.2588854333
 C          5.1247289526       -1.6130470454        0.8701332504
 C          4.9323102792       -0.2408780693        0.8666384348
 H          5.1565100926        0.3745776623        1.7221816045
 H          5.5068374930       -2.0979449765        1.7537971402
 H          4.9647950058       -3.4253164743       -0.2519291910
 H          4.0923826649       -2.3160092017       -2.2773661968
 H          3.7526734476        0.1478692557       -2.2760567612
 H          2.0178677454        2.1806195526       -1.1321353441
 H          2.8509918825        1.8744523502        2.3685580733
 H          1.8247658305        0.1460304737        3.8292112686
 H          0.2284799659       -1.4755469441        2.8856711319
 H         -0.9362131978       -2.3664095542        1.1236867274
 C          0.1189638368       -2.5520958185       -0.7237884978
 C          1.0849114087       -3.5978760425       -0.2574099850
 C         -0.2264339059       -4.0032486518       -0.8593322470
 H         -0.2316622466       -4.4402691257       -1.8466184841
 H         -0.9896045428       -4.3987058213       -0.2049062201
 H          1.9854025521       -3.7563100333       -0.8294627318
 H          1.2127285338       -3.7190838536        0.8073022486
 H          0.3581041142       -2.0116293955       -1.6300589794
