  62
        -98.94290686
 C         -2.0303454920       -0.9679337142        0.4585750658
 C         -2.6927981020        0.0886088717        1.1375694601
 C         -4.1213793947        0.2615516262        0.8479723835
 C         -4.7219775763       -0.5823818307       -0.0103430982
 C         -6.1557188052       -0.4916218868       -0.4437435937
 C         -6.2990026778        0.3691575625       -1.7067778886
 C         -5.5794255556        1.7153468987       -1.6220048845
 H         -4.5018490929        1.5423065772       -1.5710978977
 H         -5.7748493467        2.2481128876       -2.5551475899
 C         -6.0071727040        2.5901221937       -0.4352259826
 H         -6.1551887331        3.6126457995       -0.7889149996
 H         -6.9632728342        2.2415106453       -0.0431359520
 C         -4.9877951779        2.6569110472        0.7037122140
 H         -5.2868794391        3.4611186831        1.3814699959
 H         -4.0048397313        2.9172994292        0.3023568980
 C         -4.8419316798        1.3817339340        1.5436489985
 H         -5.8249754432        1.0530363734        1.8872627484
 H         -4.2361505748        1.6290451552        2.4205193026
 H         -7.3617028344        0.5339839448       -1.8934417638
 H         -5.8869106942       -0.1859280344       -2.5525512548
 H         -6.5148258977       -1.4993935916       -0.6586918885
 H         -6.7483865512       -0.0698988636        0.3657000302
 O         -4.0651455269       -1.5962172958       -0.6234415842
 C         -2.7085138749       -1.8119474847       -0.4218289990
 O         -2.2598124835       -2.7713326445       -1.0780823472
 O         -2.1127912772        0.8508129381        1.9580656054
 C         -0.5496277312       -1.1387911382        0.7531043139
 C          0.3085104943       -0.5066803222       -0.3170984683
 C          0.2683134079       -0.9447956095       -1.6375648107
 C          1.0638012513       -0.3476095288       -2.5976626206
 C          1.9289363599        0.6788173224       -2.2591748689
 C          1.9806928915        1.1203269097       -0.9432886040
 C          1.1659112666        0.5321977191        0.0154766575
 H          1.2094269204        0.8966281565        1.0308991032
 N          2.8565460000        2.1555687295       -0.5611357218
 S          3.9787678616        1.8333425802        0.6397257868
 O          3.3065327383        1.5797448390        1.8872036880
 O          4.8888399247        2.9560057670        0.6123294734
 C          4.8124552291        0.3615129822        0.0723971668
 C          4.2344826232       -0.8706705085        0.3056247565
 C          4.8451204823       -2.0032790718       -0.2091674705
 C          6.0160491789       -1.8860527195       -0.9421804142
 C          6.5861150248       -0.6415603134       -1.1642687340
 C          5.9768572200        0.4953856967       -0.6586193893
 H          6.3858148425        1.4822612233       -0.8038880620
 H          7.4986466918       -0.5539766597       -1.7316444131
 H          6.4867108049       -2.7707252135       -1.3410864048
 H          4.3994210332       -2.9698387269       -0.0375540328
 H          3.3247219642       -0.9274960549        0.8803746429
 H          3.3177336001        2.6044589727       -1.3403693871
 H          2.5542315198        1.1399494242       -3.0088246348
 H          1.0167161858       -0.6913750223       -3.6197676148
 H         -0.4026752103       -1.7467931435       -1.9037351137
 H         -0.3801249527       -0.5792918058        1.6836850760
 C         -0.1374875677       -2.5796472582        0.9837864823
 C          1.0522565587       -2.8630409741        1.8491151693
 C         -0.3268724321       -3.1847277511        2.3406087803
 H         -0.6269161286       -4.2197012767        2.4051134306
 H         -0.7520230512       -2.5586483346        3.1119352450
 H          1.7038895466       -3.6799743637        1.5802749003
 H          1.5596563809       -2.0209571882        2.2975323723
 H         -0.3059739576       -3.2198462289        0.1280261581
