  62
        -98.94968158
 C         -1.5017182391       -1.0507582589        0.0351878058
 C         -2.5232620006       -0.6292288940        0.9167774583
 C         -3.0468210948        0.7210614295        0.6882629691
 C         -2.5195976776        1.4857414015       -0.2856363754
 C         -2.9207458436        2.8984239712       -0.6141313388
 C         -4.1460903135        3.0068814538       -1.5322665902
 C         -5.4836284494        2.6628713397       -0.8756212159
 H         -5.5939657704        3.2396269522        0.0432060067
 H         -6.2693397516        2.9871918306       -1.5608013383
 C         -5.6756764187        1.1698709133       -0.5751732340
 H         -4.9536773038        0.5868568155       -1.1513503898
 H         -6.6713464637        0.8582526596       -0.8984326285
 C         -5.5426650846        0.7986467438        0.9017210958
 H         -6.3419755007        1.2750940809        1.4735779406
 H         -5.6604453727       -0.2839126730        0.9951612382
 C         -4.1971115706        1.1835211989        1.5310447051
 H         -4.1464072804        2.2614001791        1.6857097225
 H         -4.1166904020        0.6882387937        2.5021228585
 H         -3.9893524680        2.3623573570       -2.4001560132
 H         -4.1948090200        4.0385687648       -1.8881344266
 H         -3.1036611728        3.4488601075        0.3094339929
 H         -2.0651186477        3.3515301844       -1.1199558423
 O         -1.5198348385        1.0534457006       -1.0971367388
 C         -0.9888810795       -0.2177662727       -0.9582522393
 O         -0.0824567963       -0.4884522602       -1.7706061658
 H          0.4353969403       -0.5728560523        1.5949023147
 C          1.1049978245       -1.2973766320        1.1542503837
 C          0.5943455301       -2.3404175090        0.3921429625
 C          1.4851098816       -3.2585239501       -0.1512103086
 C          2.8482783711       -3.1174744664        0.0441646109
 C          3.3533123860       -2.0494023516        0.7627220219
 C          2.4698841305       -1.1311438913        1.3172217305
 N          2.9284352032       -0.0041472552        2.0349238448
 S          2.6338155692        1.4850070328        1.3180476210
 O          3.2781487009        2.4518208146        2.1821856293
 O          1.2201565815        1.6596698760        1.1085869101
 C          3.5190080069        1.3949293876       -0.2284694940
 C          4.8062771724        1.8968644744       -0.2747558995
 C          5.5400183465        1.7597476256       -1.4413182944
 C          4.9802757693        1.1143485065       -2.5341341241
 C          3.6896262525        0.6134103061       -2.4691889738
 C          2.9458040132        0.7504613435       -1.3061964675
 H          1.9368468960        0.3722111347       -1.2405822487
 H          3.2460752747        0.1110329905       -3.3138911830
 H          5.5514956178        1.0017371899       -3.4421177254
 H          6.5429628827        2.1517688449       -1.4939285482
 H          5.1967177449        2.3929382275        0.5993355636
 H          3.9082574104       -0.0562853545        2.2812358169
 H          4.4175173014       -1.9227424079        0.8934809655
 H          3.5266557964       -3.8387921787       -0.3849350054
 H          1.1105614427       -4.0841921581       -0.7339635491
 C         -0.9000261734       -2.4328350238        0.2044861773
 H         -1.3414830408       -2.8336360811        1.1299225957
 C         -1.3022098486       -3.3253205223       -0.9529021056
 C         -1.5128833081       -4.7948094721       -0.7451747597
 C         -2.6881033464       -3.8947614097       -0.9760702479
 H         -3.2077855839       -3.9511068782       -1.9208022043
 H         -3.3300663128       -3.6631056061       -0.1385784589
 H         -1.2278464416       -5.4733927296       -1.5350030895
 H         -1.3653290399       -5.1859317232        0.2501351110
 H         -0.8816412478       -2.9939311673       -1.8959918733
 O         -2.9696668930       -1.3453689994        1.8551125273
