  62
        -98.94947729
 C         -1.0273159602       -1.7375702120        0.1038336956
 C         -1.6745152665       -0.9786408585        1.1073275129
 C         -2.8474378930       -0.2103662559        0.6759589588
 C         -3.2314717639       -0.2488539707       -0.6129361501
 C         -4.4059320263        0.4795143261       -1.2077292547
 C         -4.1094368750        1.9423997518       -1.5660212952
 C         -4.0256531530        2.9001628969       -0.3767042153
 H         -4.0600456457        3.9138261352       -0.7811388214
 H         -4.9036087015        2.7709084481        0.2578157459
 C         -2.7503598818        2.7536381873        0.4648303388
 H         -1.9880716281        2.2335714654       -0.1216324238
 H         -2.3464530190        3.7453554124        0.6852393716
 C         -2.9512788334        2.0409649450        1.8026230550
 H         -1.9800599289        1.9608256395        2.2969758153
 H         -3.6012886233        2.6452169694        2.4400254070
 C         -3.5528644659        0.6338827387        1.6952414335
 H         -4.6146697705        0.6993845169        1.4579045105
 H         -3.4408919611        0.1412270264        2.6646311284
 H         -3.1720365022        1.9834396379       -2.1271073147
 H         -4.9094311119        2.2853887264       -2.2267036070
 H         -5.2539777296        0.4351558427       -0.5232315539
 H         -4.6695591827       -0.0534240550       -2.1239165799
 O         -2.5883662080       -0.9970037572       -1.5478295933
 C         -1.4666445782       -1.7463984508       -1.2206712196
 O         -0.9690379194       -2.3688837499       -2.1785113409
 O         -1.2908514759       -0.9450267109        2.3080644417
 C          0.2134015102       -2.5264181876        0.4694160099
 C          1.4310634004       -2.0444145815       -0.2848151751
 C          2.5508783123       -2.8477321162       -0.4745293915
 C          3.6610675699       -2.3565987374       -1.1385116093
 C          3.6917179095       -1.0571461813       -1.6130899320
 C          2.5781688702       -0.2463010327       -1.4291149472
 C          1.4669748949       -0.7459136061       -0.7687008925
 H          0.5999277818       -0.1147616603       -0.6649045426
 N          2.5509276361        1.0723153193       -1.9016356569
 S          1.6426336408        2.2389684335       -1.1274636467
 O          0.2369584372        2.0388117344       -1.3762422126
 O          2.1957902306        3.4880965323       -1.6062737709
 C          2.0216367211        2.0371581547        0.6032633284
 C          1.0714553200        1.5508077511        1.4758205479
 C          1.4172541138        1.3392621672        2.8007854617
 C          2.7032331696        1.6248768820        3.2308815209
 C          3.6452435522        2.1290269973        2.3460301228
 C          3.3058430784        2.3328846590        1.0189060425
 H          4.0087488802        2.7274795450        0.3033716295
 H          4.6428126639        2.3563655269        2.6857298893
 H          2.9706279243        1.4546095545        4.2617948540
 H          0.6777620948        0.9340946663        3.4738274492
 H          0.0784569392        1.3327736337        1.1162373819
 H          3.4244138811        1.4288782615       -2.2578307542
 H          4.5588588367       -0.6770501666       -2.1305660213
 H          4.5198053978       -2.9938458493       -1.2850140504
 H          2.5486213586       -3.8614364532       -0.1081286750
 H          0.3812465456       -2.3243474393        1.5391267012
 C         -0.0264741814       -4.0138146398        0.2912433418
 C          0.5552472310       -5.0045684566        1.2539393579
 C         -0.9160601773       -4.7231254455        1.2669352828
 H         -1.5942274159       -5.4760025984        0.8943228251
 H         -1.3183760996       -4.1391109314        2.0819418862
 H          0.8890010079       -5.9577776000        0.8722642504
 H          1.1454985478       -4.6226630020        2.0732893374
 H         -0.1044877501       -4.2972217622       -0.7523749050
