  62
        -98.94716813
 C         -1.6063112570       -1.5645228645       -0.2457526850
 C         -2.7696831846       -1.2286399786        0.4938291204
 C         -3.5546178069       -0.1000133429       -0.0159577204
 C         -3.1596595607        0.5364465107       -1.1333238676
 C         -3.8671500244        1.6893235172       -1.7930593993
 C         -3.5278294128        3.0632881828       -1.1987387337
 C         -4.1074684789        3.3345819110        0.1898483430
 H         -5.1817005405        3.1476423358        0.1762073433
 H         -3.9666207279        4.3980236114        0.3933350348
 C         -3.4562564290        2.5231923722        1.3189749013
 H         -3.2379236583        3.1817337816        2.1624779936
 H         -2.5028973703        2.1145522301        0.9759131943
 C         -4.3193900587        1.3790945971        1.8512647100
 H         -5.2216065651        1.7839454834        2.3151572221
 H         -3.7520168162        0.8517438831        2.6222740851
 C         -4.7355174048        0.3554289663        0.7863644272
 H         -5.5000062928        0.7784066858        0.1349380557
 H         -5.1519693738       -0.5184499298        1.2932356203
 H         -3.9176440517        3.8184792647       -1.8852689722
 H         -2.4420982766        3.1734303954       -1.1671946274
 H         -4.9447679509        1.5291678401       -1.7469488938
 H         -3.5613787138        1.6835005025       -2.8417583983
 O         -2.0481276117        0.1727198820       -1.8248757360
 C         -1.2310811531       -0.8635476823       -1.3914762260
 O         -0.2340243427       -1.0487947051       -2.1156165450
 O         -3.1343006005       -1.8464042854        1.5284333600
 C         -0.7266620343       -2.6834093366        0.2904573192
 C          0.5228052705       -2.0374622901        0.8346200494
 C          0.5196990470       -1.5153703774        2.1253142451
 C          1.6128874055       -0.8219921495        2.6107816713
 C          2.7222684030       -0.6110298972        1.8101604836
 C          2.7268347654       -1.1162309291        0.5170521033
 C          1.6454287123       -1.8460862765        0.0439921450
 H          1.6616922771       -2.2224310295       -0.9662680910
 N          3.8212667328       -0.8440625798       -0.3262786607
 S          4.2930940567        0.7622803356       -0.4000006537
 O          4.8178363100        0.9529356957       -1.7343165049
 O          5.2171725459        1.0345544767        0.6741496453
 C          2.8089807496        1.7284754963       -0.1612304687
 C          2.7719682353        2.6723030530        0.8456564174
 C          1.6163473088        3.4131946795        1.0314934727
 C          0.5190496180        3.1978026272        0.2120612086
 C          0.5737449087        2.2489815841       -0.7966476412
 C          1.7269308843        1.5056526053       -0.9889103090
 H          1.7699116239        0.7547181288       -1.7621382500
 H         -0.2760920974        2.0645140324       -1.4356662752
 H         -0.3831909882        3.7709267808        0.3614305247
 H          1.5717853355        4.1520217851        1.8152749062
 H          3.6453013402        2.8024425048        1.4639661773
 H          3.7048458066       -1.2182446944       -1.2574827392
 H          3.5771882378       -0.0556751406        2.1608923433
 H          1.5983332808       -0.4301885022        3.6162677288
 H         -0.3607862841       -1.6466831737        2.7382719489
 H         -1.2855632286       -3.1159705301        1.1306181757
 C         -0.4668249661       -3.7686057783       -0.7320415642
 C          0.1080583203       -5.0759171662       -0.2774968071
 C         -1.3197425221       -5.0002629412       -0.7255801266
 H         -1.5884380237       -5.4448978025       -1.6721602300
 H         -2.0949532624       -5.0685717053        0.0234231386
 H          0.8220034898       -5.5759631810       -0.9140254909
 H          0.3029823953       -5.1929488993        0.7778117782
 H         -0.1601399489       -3.3900701487       -1.6991510249
