  62
        -98.94488154
 C         -1.9386411299       -0.8544788601        0.0779764486
 C         -2.2727052200        0.0990725196        1.0668191089
 C         -2.4358733897        1.4807784297        0.5986623794
 C         -2.2224590895        1.7634762902       -0.6996209604
 C         -2.3946302493        3.1196542204       -1.3198343100
 C         -3.8207835392        3.3108432608       -1.8555630001
 C         -4.9122957794        2.9359828405       -0.8530303104
 H         -5.8741256393        3.1377378908       -1.3291661004
 H         -4.8656140095        1.8614070005       -0.6625563008
 C         -4.8340701395        3.6900851500        0.4816658199
 H         -5.8369015395        4.0255696500        0.7538719099
 H         -4.2132749794        4.5794738900        0.3687238303
 C         -4.3116862697        2.8547457796        1.6519679497
 H         -4.8706686599        1.9176014096        1.7118353492
 H         -4.4990941098        3.4079541192        2.5760259298
 C         -2.8149935898        2.5190747294        1.6171732498
 H         -2.2332488697        3.4317556894        1.4702070402
 H         -2.5440984900        2.0955862990        2.5890568296
 H         -3.9398173091        4.3540175309       -2.1537167597
 H         -3.9418681092        2.6863218711       -2.7435678303
 H         -2.1665629893        3.8824877501       -0.5777097097
 H         -1.6865238292        3.2082171507       -2.1456803698
 O         -1.8737141795        0.8254871505       -1.6167639707
 C         -1.7176432597       -0.5025452397       -1.2536203512
 O         -1.4013225796       -1.2597923193       -2.1916822514
 O         -2.4288990102       -0.1935173609        2.2848534388
 C         -1.7320768201       -2.3014533303        0.4858486381
 C         -0.3291460801       -2.7331915803        0.1354832182
 C         -0.0273798902       -3.9590736701       -0.4432397222
 C          1.2803636498       -4.2757806001       -0.7685712422
 C          2.3066702099       -3.3799279703       -0.5353689917
 C          2.0170935299       -2.1580068505        0.0627457687
 C          0.7118568399       -1.8548073905        0.4095512786
 H          0.4996467600       -0.9004558107        0.8712354390
 N          3.0382094100       -1.2316253307        0.3417469792
 S          2.6747178502        0.4144203893        0.2370970597
 O          2.0627393701        0.8338766689        1.4742044998
 O          1.9384087804        0.6984964499       -0.9743799103
 C          4.3248954803        1.0844564792        0.1332556602
 C          5.0636689701        1.2082473387        1.2949991704
 C          6.3604138702        1.6906300986        1.2160114107
 C          6.8944049704        2.0385038890       -0.0160576391
 C          6.1403233705        1.9110773595       -1.1728655692
 C          4.8430937605        1.4275074696       -1.1010622996
 H          4.2159968706        1.3170290400       -1.9714408497
 H          6.5562424707        2.1851830998       -2.1289592791
 H          7.9037610604        2.4137877689       -0.0750449888
 H          6.9484969101        1.7933634382        2.1136157908
 H          4.6020228500        0.9336354784        2.2290227502
 H          3.9000341700       -1.4462424707       -0.1420224308
 H          3.3222677199       -3.6198839904       -0.8110262416
 H          1.5002724498       -5.2282924100       -1.2263734125
 H         -0.8176672102       -4.6610513900       -0.6529930126
 H         -1.8342676403       -2.3153836007        1.5819204081
 C         -2.8057436801       -3.1833850400       -0.1172587923
 C         -3.2582666904       -4.4226489002        0.5941278371
 C         -4.1557590302       -3.2246437100        0.5317238575
 H         -5.0304763001       -3.2641105097       -0.0998868527
 H         -4.2901617503       -2.6363335304        1.4278536877
 H         -3.5210176404       -5.2880652899        0.0047241568
 H         -2.7905437005       -4.6549342206        1.5388504071
 H         -2.7696974500       -3.1945646896       -1.2010604323
