  62
        -98.93977588
 C         -1.5059180129       -1.5387038069       -0.2066720025
 C         -1.5265478898       -0.1364432533       -0.3832680186
 C         -2.8566447751        0.4977753097       -0.4878697947
 C         -3.9528075999       -0.2790886310       -0.4071854062
 C         -5.3946995865        0.1517748115       -0.4373312155
 C         -5.8519694968        0.7747546994        0.8931784557
 C         -4.8495475108        1.7284630940        1.5393101363
 H         -5.2318370859        1.9894528470        2.5298448419
 H         -3.9017027556        1.2071206865        1.6861003967
 C         -4.6016784440        3.0285292830        0.7781199715
 H         -5.5414691393        3.5799279672        0.6982517690
 H         -3.9138647904        3.6298944038        1.3778997055
 C         -4.0088615523        2.8796694509       -0.6237277749
 H         -4.7641898273        2.5451518337       -1.3297338756
 H         -3.6974257541        3.8757983434       -0.9515594962
 C         -2.7725623500        1.9891070720       -0.7064068907
 H         -2.3190943230        2.1163438028       -1.6967039700
 H         -2.0205734030        2.3490184511        0.0046389105
 H         -6.0359031050       -0.0390511114        1.5989531454
 H         -6.7969380742        1.2941857616        0.7254884077
 H         -5.5608102953        0.8347163788       -1.2652283477
 H         -5.9887430512       -0.7457852871       -0.6227981874
 O         -3.8815502692       -1.6300854352       -0.2270168367
 C         -2.6737773229       -2.2929269424       -0.1240426493
 O         -2.7688060720       -3.5266159038        0.0423676110
 H          2.4303800257       -1.3124508585       -0.1820251669
 C          1.9537260328       -1.1843274347        0.7743671735
 C          0.6579279244       -1.6259887173        0.9851662212
 C          0.0988755118       -1.4725179593        2.2519478716
 C          0.8118758733       -0.8725760747        3.2709568109
 C          2.0936240732       -0.3999500781        3.0467486548
 C          2.6646076640       -0.5597706711        1.7907049974
 N          3.9641318531       -0.1035837979        1.5338139751
 S          4.3926245790        0.4503067871        0.0182760232
 O          4.6110276175       -0.6630902178       -0.8719782437
 O          5.5512837919        1.2838502122        0.2660939471
 C          3.0472624439        1.4603544507       -0.5725142721
 C          2.5289876533        1.2297974950       -1.8291752746
 C          1.5112214908        2.0444239901       -2.2953563430
 C          1.0283977661        3.0682971513       -1.4981526126
 C          1.5588161045        3.2871306335       -0.2373992296
 C          2.5802135155        2.4792936579        0.2320551473
 H          3.0142462532        2.6302550702        1.2074522299
 H          1.1738204017        4.0803676854        0.3835607252
 H          0.2274360960        3.6943813205       -1.8587936126
 H          1.0902460566        1.8695963166       -3.2730563386
 H          2.9263913542        0.4146361683       -2.4138922386
 H          4.3832906082        0.4433238330        2.2707715657
 H          2.6472242354        0.0838164482        3.8369223998
 H          0.3632342149       -0.7593236666        4.2465261405
 H         -0.9098966370       -1.8248927628        2.4221251019
 C         -0.1724322911       -2.2561826564       -0.1054757161
 H         -0.3989471776       -3.2934421991        0.1812518051
 C          0.5134963790       -2.2579575034       -1.4556434404
 C          1.4927817430       -3.3365365081       -1.8050871120
 C          0.1470605212       -3.3027292974       -2.4642350531
 H          0.0875309577       -3.0183403567       -3.5041169013
 H         -0.5865275703       -4.0397790564       -2.1708447459
 H          2.3640744073       -3.0749715534       -2.3872119807
 H          1.6763240178       -4.1025907046       -1.0666968797
 H          0.7059364908       -1.2554929854       -1.8220542457
 O         -0.4847082538        0.5645366607       -0.4444575072
