  62
        -98.93973091
 C          2.4557947844       -0.2487164359       -0.2828282125
 C          3.6119142627       -0.0662006073       -1.0781774416
 C          4.7757521487        0.5146986558       -0.3962701777
 C          4.6733613788        0.8579044972        0.9009948134
 C          5.7939099412        1.4134735204        1.7305494273
 C          6.5738260898        0.2932076146        2.4330176689
 C          6.9872501598       -0.8482500396        1.5040127132
 H          7.5561286167       -1.5638783027        2.1015374858
 H          6.0907595319       -1.3639234579        1.1523364452
 C          7.8261132438       -0.4107766481        0.2951605793
 H          8.2461506044        0.5796133774        0.4742903546
 H          8.6636122434       -1.1022612163        0.1811693452
 C          7.0685299617       -0.4064608917       -1.0338644374
 H          6.5679679512       -1.3679336461       -1.1734276574
 H          7.7979424090       -0.2972946534       -1.8408855842
 C          6.0279215010        0.7074494474       -1.2048823264
 H          6.4843579199        1.6747140402       -0.9847538924
 H          5.7106879763        0.7079618175       -2.2519549691
 H          5.9460593549       -0.1205471206        3.2255260303
 H          7.4616661182        0.7286185468        2.8951183456
 H          5.3665357963        2.0754754794        2.4855536689
 H          6.4607174603        1.9897141107        1.0920371554
 O          3.5373307006        0.6919269054        1.6252234933
 C          2.4027780389        0.1295251612        1.0586949428
 O          1.4380502878        0.0227802094        1.8387571194
 O          3.6658537278       -0.3708857842       -2.3005780077
 C          1.2166439287       -0.8522718421       -0.9189111005
 C          0.0752049684        0.1320895878       -0.8470372217
 C          0.2683872326        1.4121565617       -1.3611465657
 C         -0.7423197916        2.3521641222       -1.3175283978
 C         -1.9695176996        2.0394014549       -0.7589216418
 C         -2.1767571657        0.7645830941       -0.2523127018
 C         -1.1609738948       -0.1838326583       -0.3081550141
 H         -1.3381414261       -1.1704142800        0.0907203133
 N         -3.4139226003        0.4411237744        0.3319099115
 S         -4.8142609297        0.9820258579       -0.4408628364
 O         -4.7341386863        0.7108286373       -1.8590912227
 O         -5.0401503689        2.3583152836       -0.0766437285
 C         -6.0439511124       -0.0558456211        0.3244747243
 C         -6.5579958232        0.3167104643        1.5519976432
 C         -7.4955039398       -0.5019745973        2.1612443175
 C         -7.9000941009       -1.6728561158        1.5373119261
 C         -7.3757754284       -2.0329274081        0.3049651008
 C         -6.4369488448       -1.2193068145       -0.3095887555
 H         -6.0102513841       -1.4548100883       -1.2714267482
 H         -7.6946868405       -2.9421545251       -0.1787289360
 H         -8.6309284662       -2.3075027051        2.0131877866
 H         -7.9072932515       -0.2245206034        3.1181607013
 H         -6.2202887094        1.2392290903        1.9946429597
 H         -3.4807486100       -0.5390332142        0.5696804044
 H         -2.7670808826        2.7635639512       -0.7162216224
 H         -0.5756594053        3.3405521410       -1.7196987212
 H          1.2277355200        1.6604149928       -1.7951197314
 H          1.4739115032       -0.9947089628       -1.9790908977
 C          0.9102297884       -2.2026001646       -0.3069951036
 C          0.1575282871       -3.2326654919       -1.0938594292
 C          1.6220202711       -3.4119586662       -0.8320147526
 H          1.9327002114       -4.1722995665       -0.1312352445
 H          2.3117867009       -3.2648427830       -1.6502402370
 H         -0.5359953569       -3.8757030477       -0.5731110751
 H         -0.1503471977       -2.9692572503       -2.0945454793
 H          0.7421250099       -2.1472657127        0.7627770075
