  62
        -98.92969592
 C         -2.5220971113       -1.2889300038        0.1956735845
 C         -2.6009940475       -0.1301367605       -0.6110299913
 C         -3.9527138839        0.4217336697       -0.8523152238
 C         -5.0162435985       -0.1894514768       -0.3001468389
 C         -6.4661381076        0.2084470713       -0.3763348259
 C         -6.8008790399        1.3966379744        0.5403560623
 C         -5.7800567376        2.5316043494        0.5211723549
 H         -6.0688468367        3.2510730865        1.2920950094
 H         -4.7999201461        2.1384901090        0.7983397389
 C         -5.6690048313        3.2850791996       -0.8020945002
 H         -6.6406211143        3.7189543044       -1.0491189802
 H         -4.9669453422        4.1085980489       -0.6480175295
 C         -5.1847899233        2.4663159214       -2.0003208763
 H         -4.9339629814        3.1736530333       -2.7963047587
 H         -5.9788286490        1.8343424908       -2.3888769902
 C         -3.9282147266        1.6397851844       -1.7441298919
 H         -3.5389176409        1.2923408473       -2.7089766278
 H         -3.1464398449        2.2918870606       -1.3377189297
 H         -6.8631527091        1.0240275413        1.5657704772
 H         -7.7829392976        1.7822680913        0.2617189820
 H         -7.0463346919       -0.6569826577       -0.0484122670
 H         -6.7415332390        0.4211296427       -1.4049497325
 O         -4.8892950145       -1.2952713081        0.4888611274
 C         -3.6610684166       -1.8586456694        0.7685883190
 O         -3.7086907341       -2.8459576628        1.5300386927
 O         -1.5998303236        0.4390385780       -1.1179985001
 C         -1.1930804379       -1.9367589460        0.5440615151
 C         -0.1946677234       -0.8792445316        0.9485617924
 C         -0.4891725595       -0.0798531108        2.0502131447
 C          0.3882196339        0.9014987275        2.4681627995
 C          1.5828796726        1.1055531478        1.8003286650
 C          1.8896335401        0.3108159529        0.7051698920
 C          1.0076654683       -0.6804143205        0.2901180007
 H          1.2516130254       -1.2757003342       -0.5759753619
 N          3.0945676781        0.5236534291        0.0123156975
 S          4.4833965056        0.7808223796        0.9372656300
 O          4.5288263090       -0.1601529037        2.0344429024
 O          4.5414450425        2.1741774640        1.3029282993
 C          5.7614343329        0.4143952458       -0.2496282545
 C          6.3277067729       -0.8462522612       -0.2639499964
 C          7.3046907243       -1.1314437235       -1.2048026294
 C          7.6940645963       -0.1576707078       -2.1122131052
 C          7.1160890086        1.1029831889       -2.0855212331
 C          6.1396574580        1.3953991539       -1.1466261274
 H          5.6696548112        2.3628434437       -1.0825494686
 H          7.4235253199        1.8578271220       -2.7911762075
 H          8.4551410005       -0.3819156362       -2.8428563322
 H          7.7580503180       -2.1094126265       -1.2261032258
 H          6.0005444799       -1.5690117915        0.4663479475
 H          3.2501358349       -0.1666365486       -0.7092847067
 H          2.2794308184        1.8661640315        2.1151924280
 H          0.1420641128        1.5157511317        3.3218572796
 H         -1.4247340484       -0.2352138032        2.5718420682
 H         -1.4057382303       -2.5484151532        1.4369482918
 C         -0.6681707519       -2.8940289530       -0.5157200699
 C         -1.6078215447       -3.6259919795       -1.4257179240
 C         -0.7000718008       -2.5706718248       -1.9783655775
 H          0.1324416728       -2.8849779882       -2.5912276903
 H         -1.1250676020       -1.6235188701       -2.2696844976
 H         -1.3975156101       -4.6600933888       -1.6540623178
 H         -2.6616749936       -3.4043474177       -1.3395607448
 H          0.1878053728       -3.4589250029       -0.1582144008
