  62
        -98.94013440
 C         -2.4937710103       -1.1647547518       -0.0246123014
 C         -2.5752632073        0.0071417790       -0.8145720206
 C         -3.9258810843        0.5566786197       -1.0035824975
 C         -4.9783708412       -0.0726033144       -0.4498243356
 C         -6.3962886595        0.4157480747       -0.5069570804
 C         -6.7203760055        1.3137706245        0.6955256792
 C         -5.6844931751        2.4098884968        0.9460754070
 H         -6.0322099257        2.9965551852        1.7991344794
 H         -4.7386220356        1.9477818173        1.2382601322
 C         -5.4428413477        3.3409143032       -0.2502141707
 H         -6.2697156970        3.2588475115       -0.9565247579
 H         -5.4225145522        4.3724942891        0.1073563997
 C         -4.1233301656        3.0986748423       -0.9855177895
 H         -3.9533054567        3.9377019219       -1.6654653608
 H         -3.2987414206        3.0868280065       -0.2680024511
 C         -4.0516679137        1.8128571158       -1.8187553851
 H         -3.1458813173        1.8634819984       -2.4301714216
 H         -4.9143544594        1.7563396607       -2.4856007837
 H         -7.7001208433        1.7667455392        0.5337146441
 H         -6.7783420757        0.6875883630        1.5888128683
 H         -7.0598163177       -0.4503662031       -0.4918973838
 H         -6.5494679669        0.9630923214       -1.4348353810
 O         -4.8614449427       -1.2111504952        0.2810767096
 C         -3.6207090520       -1.7762314049        0.5241399523
 O         -3.6516765312       -2.8025491296        1.2333597078
 O         -1.5758420140        0.5698410974       -1.3334506356
 C         -1.1412301238       -1.7944897050        0.2568439219
 C         -0.2435515013       -0.7870568135        0.9335958779
 C         -0.7006093542       -0.1613140682        2.0914752581
 C          0.0800794533        0.7707339525        2.7460489367
 C          1.3372371978        1.0931133022        2.2654036740
 C          1.8018932314        0.4769193822        1.1098187665
 C          1.0147231760       -0.4614640713        0.4551988220
 H          1.4013559716       -0.9245936391       -0.4366853469
 N          3.0578816642        0.8147006977        0.5822641696
 S          3.9581928324       -0.3495681499       -0.2395688148
 O          3.4670746226       -0.4663063909       -1.5891897410
 O          4.0112238723       -1.5728496593        0.5297901606
 C          5.5544438739        0.4457677445       -0.2508447984
 C          6.5268038017        0.0439252945        0.6450088015
 C          7.7520622338        0.6923589022        0.6399234184
 C          7.9812979058        1.7279042370       -0.2533209375
 C          6.9955771982        2.1197065615       -1.1473640494
 C          5.7693151543        1.4745075616       -1.1489754594
 H          4.9769634474        1.7378481767       -1.8303360915
 H          7.1784008513        2.9234272583       -1.8422537495
 H          8.9350763623        2.2314818038       -0.2551039953
 H          8.5216126350        0.3878830788        1.3308585957
 H          6.3053259463       -0.7701556347        1.3162492259
 H          3.6291752860        1.3417249829        1.2283162267
 H          1.9481913074        1.8225310938        2.7751060134
 H         -0.2894044210        1.2474950799        3.6416949806
 H         -1.6822739250       -0.4180818847        2.4677490511
 H         -1.3275307034       -2.6144625839        0.9664315566
 C         -0.5538492902       -2.3763125919       -1.0111166344
 C          0.4381515999       -3.4961523499       -0.9319385337
 C         -0.9496598645       -3.7577666380       -1.4334311123
 H         -1.0898513538       -3.9550798970       -2.4855588389
 H         -1.6331962111       -4.2950394046       -0.7919549045
 H          1.2570426467       -3.5084546061       -1.6359972686
 H          0.7037081115       -3.8593211514        0.0497514462
 H         -0.4205297739       -1.6341324367       -1.7905286583
