  62
        -98.94823381
 C          1.1955998162        1.2003409470       -0.0488938899
 C          1.9181627103        0.6327640260        1.0275134319
 C          2.5415374698       -0.6691236357        0.7640087472
 C          2.3876948387       -1.2521900177       -0.4386415150
 C          2.9386205179       -2.5906416856       -0.8503738365
 C          4.3964308318       -2.5464343173       -1.3287751930
 C          5.4369148716       -2.3337712399       -0.2286370167
 H          5.2761645331       -3.0612318199        0.5677019947
 H          6.4146189242       -2.5420817864       -0.6675847655
 C          5.4539754652       -0.9170467685        0.3622082803
 H          4.9296921670       -0.2345372779       -0.3105081245
 H          6.4853735248       -0.5650938427        0.4356044715
 C          4.8381284260       -0.8041822922        1.7569863984
 H          5.4338557876       -1.3788643746        2.4697369909
 H          4.8682787764        0.2450162580        2.0621573142
 C          3.3818480742       -1.2797524792        1.8439880755
 H          3.3361509861       -2.3678424455        1.7931432082
 H          2.9699611557       -0.9605908328        2.8051112931
 H          4.6070766712       -3.5002306828       -1.8178091463
 H          4.4941680959       -1.7585338383       -2.0789469766
 H          2.3169344720       -2.9447568172       -1.6753871822
 H          2.8454957992       -3.2940992774       -0.0222549908
 O          1.6710187865       -0.6814122357       -1.4426752253
 C          1.0562351744        0.5545014933       -1.2765171042
 O          0.4303526357        0.9509481167       -2.2761046233
 O          2.0340049209        1.1866343461        2.1544529618
 C          0.5135294884        2.5416215450        0.1478559051
 C         -0.9792153213        2.3849600029       -0.0096042487
 C         -1.7479572951        3.1703501388       -0.8581861151
 C         -3.1144452637        2.9698281783       -0.9502748321
 C         -3.7387065301        1.9885973361       -0.2034270745
 C         -2.9804645679        1.2037753414        0.6591751358
 C         -1.6134272130        1.4091353021        0.7515417064
 H         -1.0335343408        0.7993594420        1.4297059741
 N         -3.5960377454        0.2213560316        1.4558439916
 S         -2.9456500045       -1.3136696590        1.5605301674
 O         -3.9950178511       -2.1035637777        2.1676331032
 O         -1.6872344658       -1.2808098123        2.2605248501
 C         -2.7107996406       -1.8245626057       -0.1294789344
 C         -3.8051925739       -2.2722848569       -0.8440636635
 C         -3.6399496786       -2.6133634316       -2.1761618214
 C         -2.3926036124       -2.4910374766       -2.7704830165
 C         -1.3041122144       -2.0423290497       -2.0391784562
 C         -1.4634378084       -1.7055220010       -0.7046558535
 H         -0.6399392807       -1.3529751754       -0.1028146886
 H         -0.3350456023       -1.9297624909       -2.4990356682
 H         -2.2641748780       -2.7477396362       -3.8101408493
 H         -4.4816997109       -2.9685019921       -2.7485329934
 H         -4.7545165456       -2.3613652813       -0.3411854918
 H         -4.5981707129        0.1683789448        1.3396840509
 H         -4.8040469245        1.8322537739       -0.2778184130
 H         -3.6999676177        3.5836082160       -1.6175493043
 H         -1.2779124106        3.9372906689       -1.4508860965
 H          0.7146387583        2.8184521406        1.1938708486
 C          1.1217771829        3.5901964698       -0.7592053180
 C          1.0849784837        5.0363746541       -0.3679213206
 C          2.3782610433        4.2809535942       -0.3243984029
 H          3.1308155734        4.4990889107       -1.0673037049
 H          2.7838083350        4.0122177481        0.6403870213
 H          0.9521269905        5.7774523250       -1.1414669296
 H          0.6140304843        5.2878345054        0.5703649383
 H          1.0288134951        3.3389937356       -1.8096002417
