  62
        -98.94489955
 C         -2.0356130102       -1.4254512182        0.1058559878
 C         -2.0058556283       -0.5631006316       -1.0167175690
 C         -2.8669664717        0.6270347826       -0.9369558042
 C         -3.6224961296        0.8314079861        0.1565320143
 C         -4.4990079978        2.0273998908        0.3866718655
 C         -3.7390107659        3.1444896507        1.1154005926
 C         -2.3786990573        3.4725803622        0.4996087503
 H         -1.7132661557        2.6156282865        0.6264161602
 H         -1.9566028462        4.2992454515        1.0745083995
 C         -2.4296690172        3.8593537075       -0.9850729657
 H         -1.8010835902        4.7386878998       -1.1418046558
 H         -3.4467498614        4.1405918965       -1.2605485134
 C         -1.9300523019        2.7744498518       -1.9412646747
 H         -0.9538197636        2.4112053324       -1.6103095059
 H         -1.7966597669        3.2257067333       -2.9282476888
 C         -2.8559578824        1.5638157606       -2.1124381043
 H         -2.4863800607        0.9789252385       -2.9597748990
 H         -3.8675625743        1.9017795808       -2.3459617766
 H         -3.5798430651        2.8352177072        2.1508595653
 H         -4.3647520227        4.0388787624        1.1203582424
 H         -5.3475029382        1.7180061604        0.9993218170
 H         -4.8693293132        2.3895391336       -0.5705088345
 O         -3.6369658728       -0.0234839495        1.2097830530
 C         -2.8487161973       -1.1593605770        1.2137259369
 O         -2.9604732455       -1.8524004733        2.2444002373
 O         -1.3074134783       -0.7534929328       -2.0490216475
 C         -1.2117614614       -2.7020472399        0.1976337293
 C          0.2324833587       -2.3926401067        0.5135878671
 C          0.7659226268       -2.7024490514        1.7594590406
 C          2.0887911021       -2.4179379919        2.0502206054
 C          2.9046808422       -1.8159528480        1.1089470906
 C          2.3753346221       -1.4841863792       -0.1318350473
 C          1.0505347684       -1.7779542764       -0.4237626130
 H          0.6407720339       -1.5071747760       -1.3850925758
 N          3.1839938455       -0.8664843093       -1.1032762388
 S          4.1147649581        0.4552176829       -0.6796527455
 O          4.5020739639        1.0617436054       -1.9323758660
 O          5.1899505787        0.0241316164        0.1783774989
 C          3.0244022096        1.5445663649        0.2169505450
 C          2.2117285765        2.3974035876       -0.5036259470
 C          1.3391287936        3.2290540920        0.1787495089
 C          1.2812932269        3.1806129173        1.5632798382
 C          2.0998136268        2.3156424453        2.2722304962
 C          2.9839808939        1.4904269992        1.5955587225
 H          3.6474317114        0.8181345444        2.1133812716
 H          2.0533850300        2.2818814254        3.3488790712
 H          0.5962199217        3.8241493724        2.0922898037
 H          0.7059559058        3.9089005760       -0.3682253592
 H          2.2885278765        2.4082726527       -1.5792718804
 H          2.6953979527       -0.6888604936       -1.9692028684
 H          3.9401836274       -1.5990853633        1.3155231007
 H          2.4912880878       -2.6721656607        3.0190512003
 H          0.1317382602       -3.1619216768        2.5039175317
 H         -1.6267871250       -3.2568879716        1.0493104317
 C         -1.3357796810       -3.5698215730       -1.0401837096
 C         -0.9959856172       -5.0252949696       -0.9420040293
 C         -2.4230700211       -4.5976353034       -1.1062379119
 H         -2.9104206650       -4.7721815682       -2.0538174563
 H         -3.0829885429       -4.6830275344       -0.2548987013
 H         -0.5004356592       -5.4964916583       -1.7769553483
 H         -0.6883369964       -5.4028860110        0.0214902535
 H         -1.0866668487       -3.0552828012       -1.9585401798
