  62
        -98.94842923
 C         -0.7756556626       -1.2363338016        0.0795437943
 C         -1.5203142550       -0.6736896234        1.1423938384
 C         -2.3984853755        0.4480767954        0.7857901113
 C         -2.4320577244        0.8775630080       -0.4892735951
 C         -3.3844015774        1.9106925218       -1.0172256927
 C         -4.6845201210        1.2581018935       -1.5106932000
 C         -5.3129923568        0.2863396019       -0.5120544129
 H         -6.2380053440       -0.0854016912       -0.9580813600
 H         -4.6508898187       -0.5729127519       -0.3830743409
 C         -5.6190104260        0.8980687416        0.8621489179
 H         -5.6260935144        1.9863201327        0.7912312873
 H         -6.6193154538        0.5870462680        1.1707715726
 C         -4.6576858117        0.4698426797        1.9722787594
 H         -5.0777945756        0.7879257994        2.9303373247
 H         -4.5839350913       -0.6204615147        1.9940853255
 C         -3.2383293025        1.0445080963        1.8799037968
 H         -3.2867966600        2.1308075792        1.7805794795
 H         -2.7231034725        0.8092203392        2.8162692764
 H         -5.3984187577        2.0493027445       -1.7467732228
 H         -4.4680668122        0.7093411803       -2.4299203446
 H         -3.6057242512        2.6321519646       -0.2332546676
 H         -2.9119464416        2.4232073068       -1.8552942479
 O         -1.6421443393        0.3635123054       -1.4647992464
 C         -0.7911760056       -0.7006884294       -1.2082265029
 O         -0.1209780862       -1.0714358266       -2.1890739706
 O         -1.4684100520       -1.1019147408        2.3280854123
 C          0.0753784394       -2.4644238221        0.3443047382
 C          1.5154702554       -2.2066734041       -0.0171346087
 C          2.2757946921       -3.0693368062       -0.7959765781
 C          3.5944822532       -2.7686379164       -1.0891678188
 C          4.1794688970       -1.6093720642       -0.6158972717
 C          3.4297962780       -0.7458122472        0.1764979144
 C          2.1117396844       -1.0511778941        0.4733277621
 H          1.5389944659       -0.3814506256        1.0992684352
 N          4.0026429763        0.4277747193        0.6837927262
 S          3.0895816694        1.7407429117        1.1274176549
 O          4.0441978837        2.8293241520        1.1790819273
 O          2.3882975030        1.4758403397        2.3596165222
 C          1.9205600222        2.0755593865       -0.1789358595
 C          0.7677143978        2.7502432729        0.1689192116
 C         -0.1147915603        3.1350270549       -0.8261180786
 C          0.1607905311        2.8237113985       -2.1482173361
 C          1.3135211259        2.1317201057       -2.4809082275
 C          2.2105647286        1.7629211203       -1.4912540583
 H          3.1142861216        1.2293258970       -1.7364637270
 H          1.5166160060        1.8742207917       -3.5077106647
 H         -0.5281762985        3.1162344039       -2.9248674614
 H         -1.0118134455        3.6726682630       -0.5643593041
 H          0.5827063718        2.9553140973        1.2117389791
 H          4.9032731763        0.6826272799        0.3081746972
 H          5.2056696850       -1.3714765342       -0.8500567028
 H          4.1730736528       -3.4439595397       -1.7007619641
 H          1.8357643967       -3.9748227624       -1.1792486552
 H          0.0225434614       -2.6285149049        1.4313815435
 C         -0.5234860167       -3.6650201668       -0.3601674288
 C         -0.3401882541       -5.0427291994        0.2004239817
 C         -1.6793600834       -4.3748356045        0.2762448514
 H         -2.4753560644       -4.7369033391       -0.3571427666
 H         -2.0173058680       -4.0093230932        1.2352192916
 H         -0.2194016817       -5.8677316804       -0.4852814656
 H          0.2292732375       -5.1391449163        1.1124415073
 H         -0.5431644944       -3.5469065080       -1.4379865290
