  62
        -98.94350785
 C          0.9606541383        0.9345707964        0.9197309901
 C          1.3652367430        0.8412149532       -0.4359045297
 C          2.0531721122       -0.4036001351       -0.8140362434
 C          2.2062527230       -1.3810111615        0.0962482721
 C          2.9211770524       -2.6785229322       -0.1460333751
 C          4.4111490946       -2.5674683072        0.2066887691
 C          5.1013284195       -1.3471327154       -0.4023192004
 H          4.6807287559       -0.4412531887        0.0399799764
 H          6.1530136232       -1.3890868698       -0.1112104829
 C          4.9976388710       -1.2561530891       -1.9311678950
 H          4.7270574802       -2.2288998191       -2.3436470775
 H          5.9781105317       -0.9942590486       -2.3343984101
 C          4.0119115806       -0.2013945540       -2.4382232778
 H          4.2231153542        0.7581582998       -1.9592874881
 H          4.1724637558       -0.0729172568       -3.5120053319
 C          2.5262312206       -0.5247754708       -2.2342628177
 H          1.9386208033        0.2003787327       -2.8056048685
 H          2.3044180477       -1.5188217675       -2.6297932241
 H          4.9135210372       -3.4765470496       -0.1286088984
 H          4.5054895040       -2.5070910894        1.2932987476
 H          2.4652988589       -3.4471321945        0.4806852406
 H          2.8023398185       -2.9613569742       -1.1906015614
 O          1.7561212109       -1.2787858594        1.3731424656
 C          1.1144566999       -0.1304454243        1.8096999354
 O          0.7250397838       -0.1835555865        2.9930819829
 H         -1.5575353753        0.3948906100        0.5310482153
 C         -1.7577560212        1.3738777388        0.1197989241
 C         -0.9415078393        2.4380088768        0.4834806428
 C         -1.2138219788        3.6923816496       -0.0441223949
 C         -2.2654249188        3.8617109312       -0.9290120808
 C         -3.0488743718        2.7910075445       -1.3186333358
 C         -2.7847650514        1.5310848628       -0.7933943636
 N         -3.5491870528        0.4078228472       -1.1516376758
 S         -2.7568776773       -1.0430547819       -1.4314504881
 O         -1.4564477400       -0.8465448903       -2.0265119710
 O         -3.7006237151       -1.8164462671       -2.2132654476
 C         -2.5958693196       -1.7936442506        0.1740567916
 C         -3.7009327469       -1.8559791014        0.9992618585
 C         -3.5706565416       -2.4527166297        2.2430787457
 C         -2.3475841681       -2.9746019637        2.6367660701
 C         -1.2495047650       -2.9108925134        1.7931445842
 C         -1.3741769266       -2.3170560096        0.5478193510
 H         -0.5415958303       -2.2285098584       -0.1344498959
 H         -0.2937445684       -3.3013773087        2.1046689101
 H         -2.2441137260       -3.4303730360        3.6087347851
 H         -4.4202377671       -2.5047343679        2.9047710028
 H         -4.6325868580       -1.4354474356        0.6594153908
 H         -4.2543291385        0.5822160051       -1.8536437639
 H         -3.8509812167        2.9230410763       -2.0289946620
 H         -2.4655140064        4.8408065316       -1.3375567514
 H         -0.5913180309        4.5327504788        0.2156730377
 C          0.1876631231        2.1364162320        1.4389472438
 H         -0.2637626328        1.7887407643        2.3835106221
 C          1.0381943359        3.3476325009        1.7899801081
 C          2.4977259124        3.2037213706        2.1003729638
 C          2.0632576507        3.9106631473        0.8535475481
 H          2.1799368949        4.9838640391        0.8083159407
 H          2.1943106086        3.4155074396       -0.0951210112
 H          2.9336750503        2.2195861105        2.0043845169
 H          2.9106915835        3.7873712389        2.9095298630
 H          0.4910938208        4.0629059769        2.3964935378
 O          1.1751512735        1.7436694124       -1.2909780413
