  62
        -98.93479074
 C          1.7852938048       -0.0404587576       -1.0678062757
 C          2.2548869592       -0.2009106447        0.2556812691
 C          3.7203226424       -0.2157917906        0.4361891778
 C          4.5138474880       -0.0662821415       -0.6397240522
 C          6.0201810727       -0.0494944897       -0.7071807126
 C          6.7459276733        0.7816854304        0.3622368314
 C          7.5021881504       -0.0701659815        1.3829522940
 H          7.9731143754       -0.9042201838        0.8585008478
 H          8.3017450767        0.5335688770        1.8181546774
 C          6.6532131536       -0.6102637929        2.5325370744
 H          7.2728652048       -1.3079975070        3.1007937106
 H          6.3902833892        0.2105512813        3.2033871584
 C          5.3651263679       -1.3244585849        2.1174146759
 H          5.5392846277       -1.9494271253        1.2423995977
 H          5.0772079159       -1.9914113251        2.9327989263
 C          4.1885660248       -0.3717997875        1.8574340729
 H          3.3046680258       -0.7220588799        2.3996083936
 H          4.4142066152        0.6187868796        2.2632667683
 H          7.4701165565        1.4201976165       -0.1464020877
 H          6.0372307195        1.4369489121        0.8664941625
 H          6.3806047146       -1.0807475624       -0.6829039617
 H          6.2547024102        0.3380779844       -1.7011975467
 O          4.0126080572        0.0774707890       -1.9011097039
 C          2.6531236693        0.0950675937       -2.1491963981
 O          2.3474480027        0.2417900082       -3.3505474638
 O          1.4894422585       -0.3267152128        1.2468890375
 C          0.2948080539       -0.0144699010       -1.3458376005
 C         -0.3877756136        1.0860440372       -0.5690685799
 C          0.2575109809        2.3063982840       -0.3885398057
 C         -0.3489917124        3.3313898866        0.3106640230
 C         -1.6249538659        3.1728915556        0.8217075884
 C         -2.2883953312        1.9685718932        0.6279315138
 C         -1.6672978022        0.9323546396       -0.0563666155
 H         -2.1996509999        0.0055696631       -0.1926686191
 N         -3.5847583362        1.7735530882        1.1290571294
 S         -4.7322053515        1.0262826220        0.1656245869
 O         -4.5023696119        1.2873824598       -1.2360768033
 O         -6.0030411543        1.4760364460        0.6943648511
 C         -4.5630459193       -0.7131205684        0.5042731863
 C         -4.2873323219       -1.1264649033        1.7926629205
 C         -4.2108780302       -2.4846711634        2.0566726163
 C         -4.4195676010       -3.4018842512        1.0376634805
 C         -4.7010809270       -2.9707410406       -0.2493769322
 C         -4.7736544900       -1.6131917197       -0.5213104379
 H         -4.9771046511       -1.2347754006       -1.5103108945
 H         -4.8624300720       -3.6843709815       -1.0418512107
 H         -4.3609504941       -4.4583980181        1.2470542982
 H         -3.9888052484       -2.8238241308        3.0557116453
 H         -4.1290188888       -0.3879817039        2.5605581128
 H         -3.9740481276        2.5689765727        1.6143929799
 H         -2.1027559714        3.9745845504        1.3643228015
 H          0.1721149786        4.2665110920        0.4519075575
 H          1.2497591682        2.4395029372       -0.7981628842
 H          0.1889088396        0.2168545203       -2.4168499366
 C         -0.2988017328       -1.3845501929       -1.0839592182
 C         -1.4504682863       -1.8873544207       -1.8997329189
 C         -0.0830844127       -2.4673305169       -2.0968456585
 H          0.1076788284       -3.4707738556       -1.7476876993
 H          0.4631262827       -2.2042330825       -2.9913424830
 H         -2.1974688458       -2.4951404437       -1.4115980340
 H         -1.8440074846       -1.2365015180       -2.6665090130
 H         -0.2540830781       -1.6602517095       -0.0365595691
