  62
        -98.95003729
 C         -1.9030232415       -1.0427456324        0.0203379379
 C         -1.3243603900       -1.8163756088       -1.0160527776
 C         -0.2511487991       -2.7319903214       -0.6106539393
 C          0.0897356182       -2.8293837906        0.6873333751
 C          1.1175128977       -3.7625391884        1.2687254928
 C          2.5607115983       -3.2449701301        1.2034119348
 C          3.1865425641       -3.2460096942       -0.1912957018
 H          4.2567676936       -3.0718629445       -0.0654039456
 H          3.0669891326       -4.2300334503       -0.6458620895
 C          2.6214067272       -2.1712928834       -1.1292471867
 H          3.4379788609       -1.6559176260       -1.6411085593
 H          2.0982507663       -1.4104799735       -0.5459983214
 C          1.6745882730       -2.6897751020       -2.2117071375
 H          1.2980825398       -1.8214558740       -2.7601647837
 H          2.2264729199       -3.3198065042       -2.9136353972
 C          0.4740043789       -3.4861219023       -1.6829229259
 H         -0.2233982534       -3.6423464285       -2.5099695135
 H          0.8021406193       -4.4579862033       -1.3131858253
 H          3.1644179258       -3.8857543736        1.8499337742
 H          2.5924053638       -2.2316924390        1.6099236222
 H          0.8493422621       -3.9002393790        2.3184283621
 H          1.0551078311       -4.7280861224        0.7656387077
 O         -0.5119602679       -2.0913994295        1.6569344220
 C         -1.4843466374       -1.1481801145        1.3464843911
 O         -1.8868652317       -0.4942166717        2.3264061732
 H         -0.7893155347        1.0010071819       -1.4616259826
 C         -1.2098992383        1.6973865754       -0.7501780447
 C         -2.3804958535        1.3632534430       -0.0781552447
 C         -2.9236693678        2.2819836625        0.8094627352
 C         -2.2898260526        3.4924618233        1.0329307155
 C         -1.1029125111        3.8024833693        0.3950501294
 C         -0.5553656113        2.8940923613       -0.5054521988
 N          0.6436440927        3.1866298429       -1.1781609307
 S          1.8554995571        2.0502451821       -1.3559512292
 O          2.9592495894        2.7938835243       -1.9228521800
 O          1.3788716666        0.9313199514       -2.1245670217
 C          2.2843707005        1.5426959756        0.2997247178
 C          1.4376222481        0.6981740409        0.9893777116
 C          1.7533336024        0.3441167795        2.2917852798
 C          2.9129262368        0.8286995451        2.8772740074
 C          3.7577717516        1.6711512653        2.1702557429
 C          3.4392442916        2.0386318583        0.8728635773
 H          4.0650975509        2.6913452531        0.2861458194
 H          4.6600100915        2.0441680148        2.6274116259
 H          3.1560213657        0.5451682046        3.8891550256
 H          1.0809662876       -0.3031880068        2.8343626897
 H          0.5429070233        0.3274255216        0.5130283226
 H          1.0408070115        4.0855704014       -0.9457978531
 H         -0.6024458344        4.7394741685        0.5865401347
 H         -2.7194166226        4.1985206032        1.7271506318
 H         -3.8347853520        2.0473033894        1.3339723359
 C         -2.9577204367       -0.0077663290       -0.3367474307
 H         -3.1134498571       -0.1139945209       -1.4204610012
 C         -4.2652196665       -0.2748012955        0.3754183975
 C         -5.5446435723        0.2634191486       -0.1897085325
 C         -5.2574184401       -1.2058696790       -0.2516352522
 H         -5.8170202016       -1.8700777902        0.3897016013
 H         -4.9988307294       -1.6384905536       -1.2073007356
 H         -6.3064311435        0.6077732380        0.4930376586
 H         -5.4853288517        0.8299551600       -1.1067979436
 H         -4.1572249478       -0.3151536135        1.4529310489
 O         -1.6960683565       -1.7512913925       -2.2187272139
