  62
        -98.94792644
 C          0.9490996908        1.0385597839        0.7073211217
 C          1.5206919867        0.9035932417       -0.5808251140
 C          2.2326747051       -0.3555585358       -0.8308937849
 C          2.2603550088       -1.3091165509        0.1169837378
 C          2.9080812934       -2.6623547436       -0.0060624100
 C          4.4143297492       -2.6657933386        0.2891159967
 C          5.2910164124       -2.0262197076       -0.7880545690
 H          6.3249524505       -2.2915933093       -0.5587609124
 H          5.0499532603       -2.4633107713       -1.7576473109
 C          5.1804540800       -0.4973323590       -0.8691280863
 H          4.7260202854       -0.1155370429        0.0478086634
 H          6.1802954752       -0.0629487733       -0.9371815087
 C          4.3810156468        0.0177564844       -2.0662225942
 H          4.3337653724        1.1079396991       -2.0046013244
 H          4.8962276525       -0.2449568680       -2.9928727689
 C          2.9434093027       -0.5136522103       -2.1401290421
 H          2.9409724302       -1.5586079663       -2.4515263084
 H          2.3935697337        0.0683516564       -2.8843867910
 H          4.5834607957       -2.1612335236        1.2429997094
 H          4.7206302059       -3.7080704161        0.4041827303
 H          2.4149588169       -3.3120630479        0.7205055388
 H          2.7282788610       -3.0624811427       -1.0049026926
 O          1.6611519396       -1.1572324400        1.3285224140
 C          0.9945825618        0.0146347488        1.6518568856
 O          0.4864172684        0.0185922005        2.7914040405
 O          1.4447266384        1.7869520081       -1.4744231049
 C          0.1641474530        2.2892024813        1.0606234724
 C         -1.0111228869        2.4163440997        0.1208612466
 C         -1.3997651253        3.6085384459       -0.4754337384
 C         -2.4762673431        3.6342953384       -1.3458623741
 C         -3.1742757491        2.4796920208       -1.6491191330
 C         -2.8002182176        1.2836383934       -1.0468247599
 C         -1.7437995614        1.2684249623       -0.1527514087
 H         -1.4588631805        0.3376979163        0.3161253235
 N         -3.4841824791        0.0863585015       -1.3080107506
 S         -2.6237461685       -1.3474947911       -1.3877369936
 O         -1.3077518152       -1.1624242507       -1.9536307435
 O         -3.5003936480       -2.2460555179       -2.1118178335
 C         -2.5039477743       -1.9016208303        0.2987539271
 C         -3.6069087740       -1.7987747438        1.1227166701
 C         -3.5073449988       -2.2511178623        2.4285502795
 C         -2.3171447898       -2.7977424726        2.8839810533
 C         -1.2217047120       -2.9013123114        2.0414993020
 C         -1.3155339285       -2.4519136039        0.7346296845
 H         -0.4824848257       -2.4958589016        0.0492816444
 H         -0.2910823794       -3.3121602027        2.3988319448
 H         -2.2376309715       -3.1408505921        3.9033558012
 H         -4.3554143752       -2.1716115624        3.0895552463
 H         -4.5127468309       -1.3628616018        0.7356300178
 H         -4.1918191324        0.1428841352       -2.0261609216
 H         -3.9973118284        2.4987299565       -2.3471583911
 H         -2.7656948655        4.5656784047       -1.8085724091
 H         -0.8541432074        4.5146691486       -0.2690396505
 H         -0.2269703946        2.1267232970        2.0759979094
 C          1.0665933282        3.5048863730        1.0717355394
 C          0.7642931541        4.6621724208        1.9744024915
 C          1.9210979710        3.7589236479        2.2759793780
 H          2.9230223994        4.1329132201        2.1278965314
 H          1.8307838483        3.0675448688        3.1013616748
 H          0.9749199793        5.6604390315        1.6213782505
 H         -0.1097602147        4.5905533995        2.6037801572
 H          1.4984352362        3.7100959222        0.0989942063
