  62
        -98.93895773
 C          1.0654373245        1.9118159802       -0.6582269581
 C          0.3034159783        2.2659473326        0.4819597412
 C         -1.1653484682        2.3532631800        0.2987291924
 C         -1.6857506074        2.1910929357       -0.9303784572
 C         -3.1294276896        2.1996049116       -1.3612151210
 C         -3.8734363082        0.9116757174       -0.9847809279
 C         -3.6978859847        0.4752666409        0.4665935525
 H         -4.2511053806       -0.4586480721        0.6020349400
 H         -2.6483138065        0.2485523693        0.6616957753
 C         -4.1985586830        1.4718310724        1.5106363799
 H         -4.1574330094        0.9628494101        2.4771293261
 H         -5.2434413337        1.7164346014        1.3063877115
 C         -3.3994757944        2.7738120054        1.6354219491
 H         -3.6983331634        3.5024070223        0.8854888075
 H         -3.6439235053        3.2122826764        2.6072160945
 C         -1.8860861831        2.5882823978        1.6027655736
 H         -1.4101821830        3.4721883267        2.0440126168
 H         -1.6074244257        1.7527588251        2.2574477854
 H         -3.5095339307        0.1027699084       -1.6233573413
 H         -4.9348925480        1.0581898004       -1.1938888505
 H         -3.6413903828        3.0670202759       -0.9556859271
 H         -3.1260126412        2.2931223921       -2.4496391565
 O         -0.8968531912        1.9587459410       -2.0211936417
 C          0.4644003257        1.7591138536       -1.9093187468
 O          1.0295475806        1.4671644201       -2.9829509781
 H          1.2748846617       -0.0036889570        1.1755323433
 C          1.9395294133       -0.5654365468        0.5376120975
 C          2.7039799494        0.0901556591       -0.4181061636
 C          3.5690310440       -0.6581743994       -1.2073669383
 C          3.6578863663       -2.0298487298       -1.0464377440
 C          2.8644619914       -2.6832017335       -0.1205792508
 C          1.9928356131       -1.9448673141        0.6723461193
 N          1.1538565610       -2.5765815101        1.6080575691
 S         -0.4816316623       -2.2121013096        1.6219559699
 O         -0.6915090465       -0.8599174512        2.0639216637
 O         -1.0709716642       -3.2521818722        2.4365916587
 C         -1.0061752861       -2.4088367006       -0.0703625165
 C         -1.5207216578       -3.6247820829       -0.4761446574
 C         -1.8773359603       -3.7916842564       -1.8044707632
 C         -1.7015986609       -2.7505751028       -2.7041238906
 C         -1.1804304392       -1.5370176423       -2.2824846262
 C         -0.8323059704       -1.3623250013       -0.9526281591
 H         -0.4309758515       -0.4264646445       -0.5970810454
 H         -1.0309395920       -0.7218541765       -2.9743743259
 H         -1.9729035243       -2.8814548902       -3.7398057895
 H         -2.2870749462       -4.7320289343       -2.1362615061
 H         -1.6431861677       -4.4052253031        0.2573582432
 H          1.2810841813       -3.5772897524        1.6642844273
 H          2.9146518346       -3.7558930108       -0.0119792997
 H          4.3362554403       -2.5993505179       -1.6629672658
 H          4.1599287257       -0.1602957102       -1.9618265965
 C          2.5487438923        1.5788897695       -0.6168328761
 H          2.9332135834        1.8174520570       -1.6217302208
 C          3.3479700766        2.4023053163        0.3805480931
 C          3.8635200695        1.8516045864        1.6724004193
 C          4.8159075273        2.1450287985        0.5545343512
 H          5.4804851894        2.9903405881        0.6486323745
 H          5.2404366690        1.3033899625        0.0284358780
 H          3.6498711829        0.8205548663        1.9088006166
 H          3.8478767388        2.5020466873        2.5335087406
 H          3.0296481336        3.4392388550        0.3951247295
 O          0.7949380443        2.4968616222        1.6156622496
