  62
        -98.94395627
 C         -2.6484152506       -1.2605005197        0.2220979796
 C         -2.6601985203       -0.2719795401       -0.7908404307
 C         -3.8399190202        0.6053416201       -0.8121120612
 C         -4.8255489003        0.4088774406        0.0827451087
 C         -6.0547598502        1.2607619008        0.2071841582
 C         -5.8361253001        2.4050735411        1.2068377979
 C         -4.5456200600        3.1907279408        0.9734069978
 H         -4.5127659300        3.9906751111        1.7162124075
 H         -3.6897833201        2.5392845408        1.1652066881
 C         -4.4149049997        3.7934585703       -0.4322966024
 H         -5.3931994096        3.8288613003       -0.9130610326
 H         -4.0610896196        4.8224973703       -0.3405796628
 C         -3.4278993297        3.0647540898       -1.3466243720
 H         -2.4697944398        2.9448742799       -0.8335190319
 H         -3.2501993095        3.6925802995       -2.2240566423
 C         -3.8776389698        1.6883367197       -1.8531610416
 H         -4.8729132298        1.7658369397       -2.2956898118
 H         -3.1769338798        1.3778814593       -2.6340057414
 H         -6.6909636100        3.0812538812        1.1500226875
 H         -5.8023074204        1.9831710215        2.2139128380
 H         -6.3134500800        1.6622242905       -0.7705423719
 H         -6.8739544803        0.6326909910        0.5611203784
 O         -4.7903650906       -0.5709313091        1.0215650891
 C         -3.6980693807       -1.4155204892        1.1277121795
 O         -3.7779877510       -2.2491563589        2.0521957498
 H          0.9003415494       -2.1858086508       -1.0856462596
 C          0.9073654394       -1.4979671805       -0.2548382098
 C         -0.2040412307       -1.3895684300        0.5635022300
 C         -0.1640775907       -0.4850740596        1.6223113197
 C          0.9560453094        0.2902731703        1.8472812495
 C          2.0645532795        0.1812028998        1.0244490897
 C          2.0337878795       -0.7119383806       -0.0364100700
 N          3.1555558896       -0.8506700510       -0.8661606798
 S          4.0541060899        0.4912787287       -1.3089427401
 O          3.2425345701        1.6810905388       -1.4144726607
 O          4.7567634800        0.0845299081       -2.5065601099
 C          5.2292883997        0.6681611090        0.0186269300
 C          5.4343557599        1.9089710491        0.5893879896
 C          6.3633757997        2.0328582994        1.6107997496
 C          7.0682867895        0.9192337694        2.0406628001
 C          6.8528417094       -0.3195401308        1.4553348306
 C          5.9269145095       -0.4496773410        0.4326601405
 H          5.7325222894       -1.3942570711       -0.0470468492
 H          7.4023803992       -1.1833660607        1.7932001809
 H          7.7892787194        1.0174082196        2.8368209902
 H          6.5320202098        2.9954720495        2.0663464893
 H          4.8578025500        2.7458559091        0.2280365392
 H          3.0189553896       -1.4769593313       -1.6459645795
 H          2.9366813996        0.7924772597        1.1884013896
 H          0.9696361794        0.9887870006        2.6704084293
 H         -1.0318688407       -0.3954516193        2.2623191595
 C         -1.4610761908       -2.1982242599        0.3532363801
 H         -1.6406932610       -2.7903286295        1.2620651203
 C         -1.4013744707       -3.1367371403       -0.8334782195
 C         -0.7263410410       -4.4685765604       -0.7055089890
 C         -2.2195511709       -4.3912094702       -0.8046433892
 H         -2.6952359809       -4.7172067204       -1.7174845591
 H         -2.8048931611       -4.5802025598        0.0834376308
 H         -0.2947523211       -4.7191497901        0.2515963212
 H         -0.1777944809       -4.8536926008       -1.5520557588
 H         -1.3283144905       -2.6115088007       -1.7792498397
 O         -1.7368834402       -0.1287466405       -1.6355988507
