  62
        -98.93898031
 C         -2.0276015179       -1.0418398110       -0.2483855052
 C         -2.4180231105       -0.2954368557        0.8930058738
 C         -2.6516286395        1.1365033684        0.6931311038
 C         -2.4341911637        1.6787139473       -0.5181017072
 C         -2.5705094818        3.1344283171       -0.8751710983
 C         -4.0045245918        3.5675637335       -1.2101792886
 C         -4.9534687981        3.6562513320       -0.0142931115
 H         -4.4974143996        4.2693524829        0.7634544726
 H         -5.8510828936        4.1753238393       -0.3559644780
 C         -5.3614557044        2.2974832559        0.5717776891
 H         -5.1372742766        1.5082647534       -0.1494912692
 H         -6.4405930111        2.2822641850        0.7396276384
 C         -4.6907457060        1.9539659200        1.9018161070
 H         -5.0239102565        0.9589504729        2.2070686109
 H         -5.0077688015        2.6656938283        2.6671642061
 C         -3.1571116172        1.9432113281        1.8509765355
 H         -2.7732626161        2.9620809043        1.7980386248
 H         -2.7834500804        1.4763532262        2.7656237307
 H         -4.4127888204        2.8753424778       -1.9501292360
 H         -3.9455306882        4.5544962881       -1.6748226245
 H         -1.9438045360        3.2953725291       -1.7553930827
 H         -2.1823557646        3.7452215676       -0.0592517574
 O         -2.0370160586        0.9394467156       -1.5855137991
 C         -1.8222632673       -0.4330085085       -1.4871115669
 O         -1.4809618586       -0.9556454059       -2.5642082406
 O         -2.5678408353       -0.8146934662        2.0329223356
 C         -1.7261975051       -2.5102724301       -0.0029972208
 C         -0.3522257507       -2.6307183300        0.6100238034
 C         -0.1134840785       -3.4741003027        1.6885687864
 C          1.1422888746       -3.5374607689        2.2664956756
 C          2.1733573079       -2.7436872271        1.7981885806
 C          1.9443927412       -1.8982304006        0.7180312437
 C          0.6948270902       -1.8642378433        0.1189697247
 H          0.5353363665       -1.2050561648       -0.7223107705
 N          2.9618663958       -1.0731868743        0.2119266471
 S          2.5145448716        0.4624588849       -0.3413530487
 O          1.4970032317        1.0242120696        0.5182005262
 O          2.2036286440        0.3752853357       -1.7459696577
 C          4.0550165191        1.3370487083       -0.1280576726
 C          4.2451777474        2.1070278956        1.0036968306
 C          5.4587141966        2.7539489071        1.1784023910
 C          6.4570335670        2.6174058422        0.2255707841
 C          6.2513460779        1.8412942923       -0.9055745025
 C          5.0399033542        1.1931865871       -1.0873098582
 H          4.8289587773        0.5878103069       -1.9534713381
 H          7.0285449992        1.7395235505       -1.6456101427
 H          7.4003912023        3.1213683269        0.3641852944
 H          5.6197448431        3.3603404121        2.0550763910
 H          3.4365146037        2.1884119692        1.7124000097
 H          3.7740638128       -1.0333164310        0.8128984807
 H          3.1460394118       -2.7720370551        2.2651302967
 H          1.3144390029       -4.1950570285        3.1048792838
 H         -0.9259006657       -4.0624672816        2.0888767827
 H         -2.4511603563       -2.8330764699        0.7628029512
 C         -1.9134257407       -3.4079811222       -1.2148460777
 C         -0.7692389522       -3.9361084118       -2.0214342490
 C         -1.5501730257       -4.8618701159       -1.1405979593
 H         -2.2094708937       -5.5805290152       -1.6029215035
 H         -1.0716258540       -5.2120943944       -0.2388672762
 H         -0.8974106209       -3.9927774505       -3.0913795999
 H          0.2304142518       -3.6601724202       -1.7222818171
 H         -2.8121214473       -3.1566423314       -1.7681018812
