  62
        -98.94702487
 C         -2.2545440397       -0.6188851948       -0.4822943214
 C         -1.4630121317        0.3453423718       -1.1507945740
 C         -1.8154471638        1.7526218595       -0.9106879239
 C         -2.8250282277        2.0524845086       -0.0756905464
 C         -3.2546728317        3.4416151046        0.2957083857
 C         -2.5294236336        3.9373710662        1.5539456829
 C         -1.0114962246        3.7570961193        1.5112277235
 H         -0.6075408372        4.1893516617        2.4299605485
 H         -0.7669545853        2.6917621477        1.5315520400
 C         -0.3262197210        4.4032824465        0.2991929787
 H         -0.9847799624        5.1490651088       -0.1488609149
 H          0.5700734922        4.9235562826        0.6438078715
 C          0.1221858820        3.4033654170       -0.7681020590
 H          0.6688187975        2.5909874188       -0.2825584933
 H          0.8138276917        3.9113862221       -1.4460123972
 C         -1.0003565479        2.7970786963       -1.6206681924
 H         -1.6434143901        3.5927593524       -2.0031889264
 H         -0.5373212616        2.2907316251       -2.4725370210
 H         -2.7663690916        4.9942160235        1.6930085378
 H         -2.9137315865        3.3866109847        2.4158063434
 H         -3.0554779745        4.1122929328       -0.5379804181
 H         -4.3287490319        3.4270246046        0.4900681273
 O         -3.5600593305        1.1037652586        0.5590206286
 C         -3.2857226806       -0.2405060221        0.3829104376
 O         -4.0326693150       -1.0010197856        1.0331957867
 H          0.4881634944       -1.1748660165       -0.2525824132
 C          0.2489977339       -1.9337604959        0.4718984422
 C         -0.9944281512       -2.5490644932        0.4361776378
 C         -1.2795606386       -3.5376358439        1.3698119781
 C         -0.3456285033       -3.8864115712        2.3294254058
 C          0.8708278348       -3.2325327114        2.3949064656
 C          1.1658579635       -2.2404221444        1.4650123638
 N          2.3842913162       -1.5481129448        1.5205696620
 S          2.4570164508        0.1216223557        1.3069501476
 O          3.3267311299        0.5896465625        2.3692714476
 O          1.1411118350        0.7076014874        1.2608917965
 C          3.3299675936        0.2969731593       -0.2362502066
 C          4.7111443634        0.2526018817       -0.1844083314
 C          5.4352845862        0.3618839623       -1.3592845975
 C          4.7693242357        0.5134817704       -2.5665109338
 C          3.3849450055        0.5564256751       -2.6019924375
 C          2.6526152750        0.4459630210       -1.4287742989
 H          1.5737320121        0.4737723141       -1.4458240629
 H          2.8605424482        0.6728636496       -3.5370823332
 H          5.3308276101        0.5997598021       -3.4835240764
 H          6.5125603380        0.3294538378       -1.3310396594
 H          5.1868040964        0.1487219978        0.7767855284
 H          2.9739880805       -1.8218845442        2.2934014199
 H          1.5871017450       -3.4799683030        3.1642355203
 H         -0.5763369077       -4.6577649563        3.0487194402
 H         -2.2469491485       -4.0179288537        1.3541147339
 C         -2.0251446926       -2.1204482982       -0.5821068302
 H         -2.9805911887       -2.5862124889       -0.3027752992
 C         -1.6485567436       -2.6005548201       -1.9694948029
 C         -1.9364557222       -4.0211432979       -2.3478074750
 C         -2.7307922519       -2.9065199734       -2.9586226861
 H         -2.5646926220       -2.6574878695       -3.9957366446
 H         -3.7536607624       -2.7727947638       -2.6367875982
 H         -2.4240386856       -4.6467133911       -1.6154420296
 H         -1.2225434074       -4.5428259254       -2.9662481785
 H         -0.7410989255       -2.1513484599       -2.3491663777
 O         -0.5069942904        0.0730972625       -1.9254515868
