  62
        -98.93574580
 C          2.1823938178        1.2099931611       -0.0995459716
 C          2.9658006241        0.5285470120        0.8575753484
 C          3.8648611309       -0.5251870297        0.3511128802
 C          3.8580979794       -0.8103829606       -0.9637833347
 C          4.6793669624       -1.8282909464       -1.7144302092
 C          4.8251597454       -3.2142329291       -1.0672348175
 C          6.2325079394       -3.4933918340       -0.5365240438
 H          6.3833739317       -4.5745261247       -0.4987740108
 H          6.9575351087       -3.0879741654       -1.2452213642
 C          6.5241055955       -2.9383177434        0.8566105127
 H          5.9769035736       -3.5218383411        1.6003761057
 H          7.5894516408       -3.0803671311        1.0526516069
 C          6.1821103759       -1.4605583881        1.0566052624
 H          6.4661240794       -0.8804068249        0.1794085017
 H          6.7802138034       -1.0893429701        1.8915226484
 C          4.7044374651       -1.2113643579        1.3941903705
 H          4.2215334015       -2.1523625854        1.6744847658
 H          4.6323950623       -0.5655223240        2.2750562700
 H          4.0898474935       -3.3327530101       -0.2727286328
 H          4.5993091380       -3.9620249003       -1.8291887905
 H          4.1906840074       -1.9226271848       -2.6867948831
 H          5.6678929369       -1.4024322310       -1.9034736869
 O          3.0611827983       -0.1446040441       -1.8483833718
 C          2.2137070010        0.8762300865       -1.4528422349
 O          1.5551972348        1.3872809811       -2.3768507900
 H          0.0486526964       -0.0292158853        0.7029910237
 C         -0.6378326314        0.6991721076        0.2870566720
 C         -0.1801294911        1.9850647711        0.0254374296
 C         -1.0773413587        2.9112629501       -0.4897809523
 C         -2.3871826081        2.5482916712       -0.7529383984
 C         -2.8316094860        1.2625578235       -0.5080834848
 C         -1.9467519657        0.3308679497        0.0192344626
 N         -2.3895656661       -0.9825514933        0.2665394138
 S         -3.7310256811       -1.1701269633        1.2631501822
 O         -3.8389146563       -0.0842301291        2.2100814153
 O         -3.6058980849       -2.4994989386        1.8203202607
 C         -5.1109401118       -1.1394332067        0.1392102515
 C         -6.1069629974       -0.1957645583        0.2971700008
 C         -7.1759931703       -0.1964732774       -0.5854183670
 C         -7.2297063684       -1.1359126431       -1.6037105927
 C         -6.2222213867       -2.0784873345       -1.7469712432
 C         -5.1513549885       -2.0840027097       -0.8675835527
 H         -4.3504631664       -2.8008076624       -0.9410870106
 H         -6.2674331417       -2.8074710927       -2.5399862361
 H         -8.0617686057       -1.1340668323       -2.2899531503
 H         -7.9604011485        0.5349955987       -0.4757465939
 H         -6.0194137146        0.5178401064        1.1007948510
 H         -1.6509068303       -1.6047478202        0.5619385803
 H         -3.8478167682        0.9736789095       -0.7208787874
 H         -3.0707616883        3.2778447150       -1.1594178411
 H         -0.7504360797        3.9184521546       -0.6889980835
 C          1.2540630866        2.3191228293        0.3571842736
 H          1.3479157363        2.3462934954        1.4537717318
 C          1.7109313834        3.6502946355       -0.2025256421
 C          1.4690178891        4.9169524745        0.5611915297
 C          2.8546677886        4.3562230517        0.4599138058
 H          3.5760707379        4.8656465415       -0.1610466139
 H          3.2844615779        3.8893717483        1.3343493411
 H          1.2409577240        5.8162986218        0.0092759280
 H          0.9599771137        4.8394531946        1.5101235077
 H          1.6610389250        3.6838386672       -1.2850434859
 O          2.9178962712        0.7870200821        2.0923984992
