  62
        -98.94621715
 C          1.8159299162        1.0076083553       -0.3059943739
 C          3.1726233986        1.2996734321       -0.0279468330
 C          4.1403616451        0.2698198727       -0.4218905771
 C          3.7108880277       -0.8552509160       -1.0224344760
 C          4.5783057144       -1.9862557389       -1.5049981964
 C          4.9497792057       -3.0001040282       -0.4139896119
 C          5.9716141483       -2.5079160895        0.6117308987
 H          6.3015615410       -3.3803682141        1.1792154684
 H          6.8436490371       -2.1093891059        0.0923055621
 C          5.4295604205       -1.4583705400        1.5920740919
 H          4.3373768230       -1.4715907654        1.5720465187
 H          5.7342010116       -1.7174478202        2.6085741779
 C          5.9117646581       -0.0326095115        1.3245356342
 H          5.4389902975        0.6321533793        2.0521050545
 H          6.9926193168        0.0228832499        1.4718040445
 C          5.5827644015        0.4915865616       -0.0794155833
 H          6.2273860340        0.0170463083       -0.8189537012
 H          5.7658760846        1.5688538049       -0.0949408722
 H          4.0373600846       -3.3097363203        0.1006528714
 H          5.3640399954       -3.8786129997       -0.9140063149
 H          4.0086640786       -2.5060086188       -2.2783297172
 H          5.4869707407       -1.5847467393       -1.9545195157
 O          2.3978190949       -1.0911485915       -1.2855324862
 C          1.4184882736       -0.1769001863       -0.9245407375
 O          0.2584100455       -0.5306030787       -1.2064139776
 O          3.5544643326        2.3668756765        0.5227427718
 C          0.7531844379        2.0243751131        0.0674884714
 C         -0.2842196638        1.3942540998        0.9623816977
 C          0.1353293518        0.7223108660        2.1087759328
 C         -0.7791618650        0.1286461557        2.9559493013
 C         -2.1338648497        0.1855971574        2.6753033025
 C         -2.5642905729        0.8599234275        1.5401585923
 C         -1.6422199165        1.4692042505        0.6980841488
 H         -2.0077269022        1.9818904135       -0.1751167347
 N         -3.9361193555        0.9638278888        1.2444261618
 S         -4.5246897615        0.4829303472       -0.2470618263
 O         -3.8909525377        1.2389936534       -1.2949717219
 O         -5.9599034882        0.6273671467       -0.1337599552
 C         -4.1160158290       -1.2496752978       -0.3655994568
 C         -2.8209319695       -1.6276486441       -0.6580499904
 C         -2.5153568472       -2.9801375140       -0.6872225527
 C         -3.4969057824       -3.9234519294       -0.4272352040
 C         -4.7929829863       -3.5252730259       -0.1346613498
 C         -5.1058645386       -2.1766682234       -0.0982881646
 H         -6.0995138486       -1.8203337328        0.1208696832
 H         -5.5565644392       -4.2596523449        0.0655774726
 H         -3.2496831644       -4.9731622947       -0.4539101336
 H         -1.5031060953       -3.2752913713       -0.9144039820
 H         -2.0618726473       -0.8886017945       -0.8611098724
 H         -4.5368795966        0.5996798791        1.9709537273
 H         -2.8507626673       -0.2832587491        3.3322710499
 H         -0.4367717162       -0.3888552082        3.8393988521
 H          1.1942586452        0.6718752889        2.3238555358
 H          1.2799572582        2.7999791636        0.6436168632
 C          0.1743118260        2.6596387516       -1.1792088431
 C         -0.3798499935        4.0509638859       -1.1283009948
 C          0.9154243642        3.7851709627       -1.8333858725
 H          0.9364539924        3.8309540652       -2.9119625871
 H          1.8312646896        4.1137164428       -1.3639323694
 H         -1.2536180132        4.2768181014       -1.7212264378
 H         -0.3449089691        4.5681797520       -0.1812833580
 H         -0.3158537141        1.9422566917       -1.8292260368
