  62
        -98.94850934
 C          1.2411380940        1.5190649288        0.4964967436
 C          2.1484414062        1.1715421007       -0.5331990363
 C          3.1845564637        0.1948385730       -0.1697222528
 C          3.2209901220       -0.2970893826        1.0817432144
 C          4.2003559958       -1.3225896034        1.5731651297
 C          3.6459073239       -2.7455654158        1.4228271319
 C          3.0743650664       -3.0501841689        0.0375991703
 H          2.7657672841       -4.0985215974        0.0405604634
 H          2.1646470417       -2.4633160174       -0.1151762337
 C          4.0500477873       -2.8098479289       -1.1229363760
 H          3.9737207517       -3.6493620041       -1.8173613928
 H          5.0741120016       -2.7914019902       -0.7470995415
 C          3.7824688102       -1.5395300664       -1.9327012559
 H          4.3624208509       -1.5985383581       -2.8578519545
 H          2.7251232163       -1.5019587251       -2.2094497812
 C          4.1487942933       -0.2181762412       -1.2448734605
 H          5.1671373620       -0.2748045336       -0.8549010049
 H          4.1114282203        0.5721347283       -2.0004260171
 H          2.8465426933       -2.8876819687        2.1540420232
 H          4.4463730883       -3.4524216739        1.6511687809
 H          5.1304022144       -1.2238122599        1.0166696562
 H          4.3971897271       -1.1304873380        2.6296006366
 O          2.3360940932        0.0644393540        2.0453864711
 C          1.3049545696        0.9471584681        1.7658535310
 O          0.5224746137        1.1431750621        2.7193770015
 H         -0.4290377306       -0.1061793807       -0.2446550883
 C         -0.9725146941        0.5257407105       -0.9289060462
 C         -0.7992523756        1.9006600334       -0.8725832058
 C         -1.4869543824        2.6898755464       -1.7867483226
 C         -2.3093744431        2.1048404050       -2.7342933073
 C         -2.4798011279        0.7326632090       -2.7832544925
 C         -1.7988470914       -0.0644604885       -1.8705532035
 N         -1.9244230795       -1.4613916349       -1.8802660082
 S         -1.8632329561       -2.3127134637       -0.4429748891
 O         -0.5158231133       -2.3544816193        0.0660615571
 O         -2.4548042171       -3.5936409227       -0.7667992850
 C         -2.9431825468       -1.4185927993        0.6601049138
 C         -2.4370114762       -0.6785192272        1.7082327960
 C         -3.3146345629        0.0398502292        2.5060095150
 C         -4.6751506658        0.0052550323        2.2459593882
 C         -5.1704118300       -0.7511904321        1.1939604200
 C         -4.2983317777       -1.4671585820        0.3916395045
 H         -4.6447496975       -2.0767813757       -0.4270029490
 H         -6.2298389641       -0.7818266310        0.9970309816
 H         -5.3517422309        0.5685903159        2.8689525440
 H         -2.9173053990        0.6249370163        3.3203410665
 H         -1.3745516790       -0.6604098166        1.8960135809
 H         -2.6182336247       -1.8285439796       -2.5141371052
 H         -3.1202853451        0.2805152471       -3.5246859782
 H         -2.8306707510        2.7283172537       -3.4446085929
 H         -1.3713555114        3.7611941881       -1.7625193386
 C          0.0952112178        2.4690314094        0.2046564951
 H         -0.4950384272        2.5274762474        1.1320724465
 C          0.6195945462        3.8518416402       -0.1266478869
 C         -0.1504469110        5.0732745566        0.2740918162
 C          1.1183089448        4.7198962982        0.9882951091
 H          1.9963439038        5.3246329289        0.8184736026
 H          1.0496446305        4.3235107621        1.9912745735
 H         -1.0815288352        4.9291388969        0.8011284503
 H         -0.1421477523        5.9271690650       -0.3865508266
 H          1.1681321134        3.8731387719       -1.0610576900
 O          2.0962344623        1.6492909129       -1.6968301633
