  62
        -98.94285029
 C          2.0982951500        1.5097090504        0.1147530516
 C          1.7168509044        0.3711355354       -0.6393087715
 C          2.7606966753       -0.6526325214       -0.8206971168
 C          3.9837433656       -0.4582080450       -0.2976789691
 C          5.1167751622       -1.4396292270       -0.3679518382
 C          5.1152647559       -2.3745456499        0.8497208583
 C          3.7531569846       -3.0033417179        1.1439291920
 H          3.8809608381       -3.6664578492        2.0022683171
 H          3.0552253331       -2.2188588306        1.4457199167
 C          3.1524590067       -3.7923006784       -0.0276565483
 H          2.7585142323       -4.7367055661        0.3533949198
 H          3.9338178595       -4.0357222331       -0.7486714599
 C          2.0005308100       -3.0857691785       -0.7449328368
 H          1.5183869423       -3.8137599005       -1.4027133370
 H          1.2587452779       -2.7569878654       -0.0128451494
 C          2.3911604068       -1.8788914588       -1.6071367320
 H          3.1975717836       -2.1570849182       -2.2888802038
 H          1.5188185880       -1.5971051118       -2.2039846525
 H          5.4246421729       -1.8008987099        1.7266397125
 H          5.8533232118       -3.1610980978        0.6817191789
 H          5.0343427785       -2.0194086001       -1.2852083560
 H          6.0546441367       -0.8816313636       -0.3852252933
 O          4.3151248813        0.6511411101        0.4113110255
 C          3.3803443211        1.6424902940        0.6563990068
 O          3.8054908822        2.5804786233        1.3603758887
 H         -1.2916594978        2.4793007486       -0.8709660578
 C         -1.3235486525        2.0443425825        0.1155445404
 C         -0.1850489569        2.0432258950        0.9041529827
 C         -0.2412147543        1.4374969251        2.1560364934
 C         -1.4116957876        0.8592366669        2.6096840329
 C         -2.5486246268        0.8641017000        1.8206368416
 C         -2.4962403153        1.4498144104        0.5628895930
 N         -3.6359489379        1.4417445547       -0.2568659910
 S         -4.5955551610        0.0740163439       -0.2911649869
 O         -5.2594381755        0.1167860827       -1.5758163432
 O         -5.4661809611        0.0698706451        0.8596612696
 C         -3.4909801274       -1.3247923776       -0.2126998186
 C         -2.5095154784       -1.4446053271       -1.1757038818
 C         -1.6558751574       -2.5336975976       -1.1283140930
 C         -1.7943761363       -3.4781827737       -0.1233078685
 C         -2.7866165749       -3.3448543712        0.8354963910
 C         -3.6451963925       -2.2584827071        0.7920778931
 H         -4.4305268544       -2.1157943334        1.5168610183
 H         -2.8923879429       -4.0814298169        1.6158221629
 H         -1.1237946586       -4.3225551334       -0.0882193391
 H         -0.8796129031       -2.6301730115       -1.8694230009
 H         -2.4118242538       -0.6944296836       -1.9431989742
 H         -3.4726764680        1.7971492050       -1.1872765477
 H         -3.4718891637        0.4250103323        2.1619086566
 H         -1.4412718938        0.3980297039        3.5852407329
 H          0.6507808362        1.4210777250        2.7678696145
 C          1.1219100891        2.6304417525        0.4343832445
 H          1.5753229289        3.1674341116        1.2831996254
 C          0.9512334803        3.6530370455       -0.6794239158
 C          2.1225068220        4.0675089686       -1.5177306322
 C          0.9986197958        3.2912505870       -2.1323404964
 H          0.3327894013        3.8075677627       -2.8090916477
 H          1.1669791924        2.2577559219       -2.3898805411
 H          2.2301803262        5.1111958612       -1.7720283998
 H          3.0614169095        3.5616944223       -1.3450451720
 H          0.2598792570        4.4416229492       -0.3967264669
 O          0.5789947457        0.2022958660       -1.1458325458
