  62
        -98.94495851
 C          1.8829752999        0.7278953433       -0.1559506377
 C          2.4405473558        0.0674933767        0.9644042579
 C          3.5190869004       -0.8874391278        0.6782677411
 C          3.8766522758       -1.1105497848       -0.5998453999
 C          4.9912259372       -2.0182341476       -1.0311144025
 C          6.3178255501       -1.2538919994       -1.1431849687
 C          6.6440607930       -0.3995732815        0.0817973753
 H          5.9102485913        0.4057884936        0.1600800215
 H          7.6152726174        0.0668969656       -0.0965383189
 C          6.6852909307       -1.1769704846        1.4048599885
 H          7.5690755661       -0.8664982657        1.9661226066
 H          6.7878536192       -2.2441546038        1.2047252051
 C          5.4769042863       -0.9459157028        2.3139877633
 H          5.3147744730        0.1273509700        2.4412412769
 H          5.7076728320       -1.3611149136        3.2986821295
 C          4.1604536477       -1.5802890021        1.8477641259
 H          3.4446155084       -1.5027022170        2.6715401409
 H          4.3186654366       -2.6387016720        1.6301605428
 H          6.2660001890       -0.5974192026       -2.0148285268
 H          7.1188987879       -1.9764283992       -1.3094217000
 H          4.7374331476       -2.4338707379       -2.0078211007
 H          5.0884299742       -2.8324076881       -0.3154126923
 O          3.2845057050       -0.4938736920       -1.6537665796
 C          2.2793270615        0.4443701986       -1.4632615775
 O          1.8310476014        0.9365055459       -2.5148886388
 O          2.0479141694        0.2616119120        2.1473305786
 C          0.7794601833        1.7464571868        0.0678849217
 C         -0.4953749930        1.2755107033       -0.5878281392
 C         -1.2651726132        2.0646773245       -1.4311045898
 C         -2.4188034764        1.5580000636       -2.0061453526
 C         -2.8348719320        0.2661482499       -1.7456494296
 C         -2.0834276169       -0.5247163765       -0.8843778748
 C         -0.9302010579       -0.0153200696       -0.3092906841
 H         -0.3444193136       -0.6342609293        0.3591879292
 N         -2.5089343908       -1.8319559489       -0.5943272440
 S         -4.1308772325       -2.0688732824       -0.2561978772
 O         -4.1721059357       -3.2288924585        0.6065266295
 O         -4.8730058418       -2.1763405380       -1.4876375288
 C         -4.6440797939       -0.6074682229        0.6299256106
 C         -3.9982885727       -0.3012683395        1.8115017801
 C         -4.3606854861        0.8479986285        2.4946906682
 C         -5.3576185378        1.6675379723        1.9874260802
 C         -6.0004087984        1.3432556740        0.8030680296
 C         -5.6404797268        0.1959393322        0.1143271045
 H         -6.1109485365       -0.0922034820       -0.8115546230
 H         -6.7765591958        1.9810029137        0.4119371344
 H         -5.6341023383        2.5634538893        2.5204767006
 H         -3.8608084806        1.1011303895        3.4159770863
 H         -3.2291843072       -0.9599483644        2.1827781814
 H         -1.9201298234       -2.3201746706        0.0638644152
 H         -3.7195347229       -0.1481539231       -2.2012599848
 H         -2.9998615016        2.1780082039       -2.6713640206
 H         -0.9568127407        3.0733284339       -1.6499648004
 H          0.6152974212        1.7609354140        1.1557268591
 C          1.2241851806        3.1237546683       -0.3751705054
 C          0.6388037920        4.3459047975        0.2649292398
 C          2.0537362563        3.9507083388        0.5594366417
 H          2.8548840795        4.5463578433        0.1481582782
 H          2.2778091388        3.5298986351        1.5289712757
 H          0.4692111390        5.2181350328       -0.3479514676
 H         -0.0988905738        4.1992795593        1.0389998413
 H          1.4711411094        3.1630641676       -1.4300017307
