  62
        -98.93521164
 C          2.4947869180        1.2296480823        0.2476968345
 C          3.0901672580        0.2899187170        1.1265116291
 C          3.9270571313       -0.7453690053        0.5090714775
 C          4.0599403037       -0.7672799128       -0.8295462853
 C          4.8410564044       -1.7928358716       -1.5979304847
 C          3.9535391326       -2.9755625767       -2.0095972276
 C          3.1199092808       -3.5513606849       -0.8646108729
 H          2.3831568217       -2.8079193129       -0.5489825728
 H          2.5602417736       -4.4002279256       -1.2639817198
 C          3.9393174172       -4.0054543758        0.3517333478
 H          3.5684337332       -4.9793213623        0.6782128889
 H          4.9840429698       -4.1348383556        0.0668570138
 C          3.8555938575       -3.0699256169        1.5593035945
 H          4.2789648515       -3.5904886711        2.4225165481
 H          2.8066786028       -2.8606042622        1.7863722161
 C          4.5968331358       -1.7339050863        1.4217366655
 H          4.6195116202       -1.2638305680        2.4092644144
 H          5.6254017625       -1.9158506466        1.1039541658
 H          3.2697477736       -2.6406297083       -2.7930007098
 H          4.5912579863       -3.7576451306       -2.4256019262
 H          5.2382377867       -1.3188856579       -2.4970375515
 H          5.6700848481       -2.1429941112       -0.9860394671
 O          3.4507818100        0.1280755020       -1.6439914426
 C          2.6425859990        1.1403979059       -1.1380829005
 O          2.1398796195        1.8613135563       -2.0155784293
 H         -0.0844160584        0.6251214186        1.8891072738
 C         -0.5353788539        1.1424619421        1.0507130101
 C          0.2057889467        2.1153177996        0.3839458534
 C         -0.3817437552        2.7396051564       -0.7096573016
 C         -1.6679606920        2.4075088161       -1.1020988308
 C         -2.3976799967        1.4452421240       -0.4297362471
 C         -1.8163340274        0.7974771832        0.6519616800
 N         -2.5398823205       -0.1976255391        1.3379557800
 S         -3.1401702426       -1.4686400862        0.4150006182
 O         -3.2605923240       -2.5807037719        1.3331303649
 O         -2.3351893623       -1.6927211310       -0.7642245091
 C         -4.7705559217       -0.9204125850       -0.0440856557
 C         -5.6409964928       -0.5561575902        0.9647272069
 C         -6.9169810155       -0.1344880233        0.6271357774
 C         -7.2997879400       -0.0876526878       -0.7052809605
 C         -6.4150939871       -0.4595774397       -1.7059130347
 C         -5.1363352530       -0.8810077618       -1.3751130351
 H         -4.4119209835       -1.1729224701       -2.1189040190
 H         -6.7140913644       -0.4223268002       -2.7411571082
 H         -8.2935393194        0.2408691852       -0.9656909425
 H         -7.6076224293        0.1559743078        1.4022863524
 H         -5.3045636083       -0.6107798166        1.9865179161
 H         -2.0521522573       -0.5579279993        2.1463222507
 H         -3.3956733467        1.1827359901       -0.7409092260
 H         -2.1042312110        2.9050838235       -1.9549945237
 H          0.1681053346        3.4599058872       -1.2875154070
 C          1.6192227991        2.3105673422        0.8725856485
 H          1.6117917029        2.0476626469        1.9424152518
 C          2.2719153482        3.6844217156        0.8167921361
 C          2.4393783290        4.5413130884       -0.4005417917
 C          1.5072217775        4.9679026186        0.6931001663
 H          1.8023182142        5.7975436915        1.3181427596
 H          0.4451542343        4.9065516138        0.5168600089
 H          3.3769338070        5.0693727946       -0.5051433704
 H          2.0494938158        4.1853697940       -1.3391257668
 H          3.1171274254        3.7039558975        1.5013431712
 O          2.9295019135        0.3174444227        2.3781793433
