  62
        -98.93398421
 C          2.0905253903        0.3974638395        0.3770772595
 C          2.8348917519       -0.7901851953        0.1696608636
 C          4.2043401810       -0.6452839222       -0.3521752185
 C          4.6836812914        0.5866972242       -0.6048700793
 C          6.0098162186        1.0438408768       -1.1756873533
 C          7.1975774051        0.0882164318       -1.2526775051
 C          7.7678302790       -0.3339099356        0.1007406473
 H          8.5443249455       -1.0817863988       -0.0743930687
 H          8.2414584279        0.5347485408        0.5650911561
 C          6.7555376664       -0.8935712877        1.0971440517
 H          7.2955450598       -1.1552844438        2.0112335156
 H          6.0334782887       -0.1184277488        1.3620712675
 C          5.9995371939       -2.1371775776        0.6329200119
 H          6.7104547532       -2.9063576360        0.3248913457
 H          5.4420018422       -2.5221415766        1.4911520335
 C          4.9918405210       -1.9140615179       -0.5086040721
 H          4.2645636372       -2.7308288220       -0.4814833198
 H          5.4802765778       -1.9450244572       -1.4798102731
 H          6.9413933737       -0.7846244687       -1.8458991887
 H          7.9876412182        0.6172881277       -1.7925753617
 H          5.7892681115        1.4029294874       -2.1870296106
 H          6.2962290420        1.9246744484       -0.5923907973
 O          3.9277254279        1.7025716420       -0.3995624244
 C          2.6286281538        1.6511418320        0.0886238016
 O          2.0986650101        2.7700495374        0.2073205177
 O          2.3695516761       -1.9369018062        0.4128226336
 C          0.6869192125        0.2353527825        0.9289447337
 C         -0.3368418899        0.1337039971       -0.1737853493
 C         -0.3292151519        1.0104608327       -1.2548471992
 C         -1.2809880981        0.9046557809       -2.2522766003
 C         -2.2724397955       -0.0587830571       -2.1794516151
 C         -2.2938985936       -0.9332988045       -1.1006330334
 C         -1.3215765160       -0.8416539935       -0.1136966608
 H         -1.3478275850       -1.5400518682        0.7087368384
 N         -3.3017344038       -1.9125247361       -0.9743014736
 S         -4.3544463477       -1.7391732034        0.3185227930
 O         -3.6124710250       -1.7665433100        1.5512146297
 O         -5.3580226090       -2.7629193720        0.1383363196
 C         -5.0810906488       -0.1283648396        0.0693807168
 C         -6.2813747869       -0.0305193591       -0.6072144321
 C         -6.8058278694        1.2261954509       -0.8632127258
 C         -6.1187760639        2.3579849133       -0.4504409598
 C         -4.9131870484        2.2429787212        0.2246370723
 C         -4.3860501178        0.9886538266        0.4882433665
 H         -3.4548327757        0.8635513193        1.0155332545
 H         -4.3772817203        3.1215688776        0.5466365730
 H         -6.5251708795        3.3361728496       -0.6536247718
 H         -7.7448642975        1.3194294831       -1.3846208545
 H         -6.7827431888       -0.9370836634       -0.9058272271
 H         -3.8360681859       -2.0534033549       -1.8209022856
 H         -3.0207361007       -0.1362130169       -2.9538738622
 H         -1.2580830936        1.5873616831       -3.0879298465
 H          0.4263190034        1.7801275667       -1.2986342201
 H          0.6996046877       -0.7364177593        1.4482725927
 C          0.3187042457        1.2964242932        1.9589030685
 C         -0.7618498054        2.3084367669        1.7387260706
 C         -0.9760893114        1.1874172963        2.7089505079
 H         -0.9799839345        1.4110921806        3.7652259104
 H         -1.6470884623        0.3855898307        2.4334893264
 H         -0.5990826205        3.3032894426        2.1238506359
 H         -1.2925547979        2.2881913074        0.7996075385
 H          1.1816921422        1.6299338088        2.5255167974
