  62
        -98.94388930
 C         -1.7876727469       -1.1966618625        0.3713991589
 C         -1.9684002202       -0.2548644097       -0.6698414364
 C         -3.3583702744       -0.0354929840       -1.0979613765
 C         -4.3481600243       -0.7348939957       -0.5135428853
 C         -5.8093702166       -0.5678201051       -0.8123476417
 C         -6.4496410586        0.4719603760        0.1180476201
 C         -5.6702107096        1.7840909789        0.2071923428
 H         -4.7058615220        1.5960016839        0.6849679332
 H         -6.2301172275        2.4512314164        0.8661648507
 C         -5.4370892294        2.4768166409       -1.1427001836
 H         -5.6495159404        3.5421866271       -1.0312203969
 H         -6.1319228533        2.0841123830       -1.8859350803
 C         -4.0077430388        2.3620533304       -1.6763493172
 H         -3.2992613533        2.6675068211       -0.9015652870
 H         -3.8985479210        3.0607689721       -2.5103179113
 C         -3.5942930225        0.9750939813       -2.1847279033
 H         -2.6373433844        1.0850693233       -2.7037706852
 H         -4.3338082687        0.6094575986       -2.9001669813
 H         -6.5158521337        0.0447372004        1.1212776267
 H         -7.4632792452        0.6724600814       -0.2335328755
 H         -5.9304679848       -0.2655741688       -1.8506318417
 H         -6.3033978474       -1.5291975443       -0.6625151910
 O         -4.1311881629       -1.6499312559        0.4654488674
 C         -2.8534772052       -1.8917937872        0.9428554198
 O         -2.7976146894       -2.7330757224        1.8624548998
 H          2.0612598331       -0.3175371128        0.3876132418
 C          1.4718665313        0.2396606657        1.0950917668
 C          0.2092067506       -0.2032734229        1.4549387604
 C         -0.5197997819        0.5411046860        2.3797714398
 C         -0.0019958002        1.7022348245        2.9182369699
 C          1.2537761128        2.1486927532        2.5436831668
 C          1.9925833032        1.4126614552        1.6267774919
 N          3.2875009939        1.8134877453        1.2605687323
 S          3.7388298318        1.8091653464       -0.3551707675
 O          4.9074593898        2.6645704336       -0.3942757819
 O          2.6492736514        2.1895039794       -1.2216509832
 C          4.2524812126        0.1372257622       -0.6827228167
 C          5.1899412567       -0.4391755375        0.1517131750
 C          5.6247707162       -1.7263270926       -0.1201220645
 C          5.1237873469       -2.4078528708       -1.2192636302
 C          4.1845872578       -1.8134057571       -2.0487874525
 C          3.7422895808       -0.5272869656       -1.7801746718
 H          3.0026667233       -0.0309733974       -2.3890858597
 H          3.7925689250       -2.3453421674       -2.9013216457
 H          5.4639163122       -3.4095627230       -1.4305132491
 H          6.3522935416       -2.1942049144        0.5231492862
 H          5.5593248201        0.1255391504        0.9911530308
 H          3.6055948494        2.6580918262        1.7146758297
 H          1.6581183526        3.0596267911        2.9588934116
 H         -0.5807778757        2.2692201445        3.6320883397
 H         -1.5024185479        0.1929867729        2.6696202103
 C         -0.3960203377       -1.4747743318        0.9110930092
 H         -0.5348718483       -2.1679916002        1.7539326498
 C          0.4581393889       -2.1541602951       -0.1382157521
 C          1.5635073390       -3.0747012688        0.2814408970
 C          0.3177386696       -3.6322574270       -0.3371921821
 H          0.3687003463       -4.0232827232       -1.3421002260
 H         -0.3847203599       -4.1523670244        0.2980189082
 H          1.7111122344       -3.2225920097        1.3404422969
 H          2.4744482724       -3.0846338529       -0.2973707520
 H          0.6037227790       -1.5413445663       -1.0207029549
 O         -1.0218845216        0.3704872501       -1.2155150005
