  62
        -98.93833990
 C          2.2538973165       -1.0022308692       -0.3850617865
 C          2.4729637410       -0.1115681514        0.6910691402
 C          3.3345461363        1.0533801238        0.4141471511
 C          3.8444775937        1.2220275907       -0.8201210725
 C          4.7126892200        2.3198321729       -1.3995167771
 C          5.4266796301        3.3147991478       -0.4881921634
 C          6.5364481361        2.7116914656        0.3722839008
 H          7.3628837071        2.4209155413       -0.2811322437
 H          6.9038826151        3.4872505130        1.0477742564
 C          6.1434959653        1.4846395677        1.1912066345
 H          5.8691094601        0.6680466177        0.5202049221
 H          7.0257422157        1.1592116187        1.7490470406
 C          5.0135225134        1.7028934947        2.1954549852
 H          5.2596797798        2.5416563733        2.8493583220
 H          4.9459923772        0.8043822182        2.8145151853
 C          3.6228155621        1.9484435681        1.5848212478
 H          2.8726977590        1.7075340516        2.3437902550
 H          3.4883436577        2.9926498514        1.3130343361
 H          5.8858886216        4.0605295206       -1.1429219101
 H          4.7071112363        3.8415875240        0.1315043060
 H          5.4539499438        1.8125040073       -2.0252827432
 H          4.0657807297        2.8800868653       -2.0839573001
 O          3.5720316376        0.3508594299       -1.8377951785
 C          2.7849739188       -0.7715214366       -1.6511877010
 O          2.6289748007       -1.4677722003       -2.6762156268
 H         -0.1025102630       -0.3102206088       -1.2413164577
 C         -0.6310238582       -0.8098596201       -0.4374361188
 C          0.0009210310       -1.8428968375        0.2441310811
 C         -0.6951390257       -2.4870778982        1.2582500844
 C         -1.9784882783       -2.0878724552        1.5902801743
 C         -2.5947758866       -1.0461311571        0.9225511890
 C         -1.9137141339       -0.4039469583       -0.1036025183
 N         -2.5271916539        0.6632432253       -0.7839361357
 S         -4.0701601614        0.4240013624       -1.4030312826
 O         -4.2956003996       -0.9627028669       -1.7399146196
 O         -4.1950208685        1.3766123521       -2.4848451489
 C         -5.1465254855        0.9137794115       -0.0722141933
 C         -6.1142376076        0.0426059517        0.3883374306
 C         -6.9466625680        0.4506486574        1.4191121232
 C         -6.7979252243        1.7155787668        1.9668569916
 C         -5.8225942729        2.5794154394        1.4909248430
 C         -4.9880200963        2.1783452910        0.4600631543
 H         -4.2199938835        2.8192018512        0.0599758640
 H         -5.7094873895        3.5622129835        1.9194849328
 H         -7.4458006528        2.0306003853        2.7695374746
 H         -7.7056435673       -0.2190189331        1.7903429881
 H         -6.1885906182       -0.9333400474       -0.0642305402
 H         -1.9324651198        1.0960422603       -1.4757377535
 H         -3.5908172655       -0.7282437047        1.1836177599
 H         -2.5048826544       -2.5934055088        2.3853513563
 H         -0.2317030011       -3.3000638143        1.7923196043
 C          1.3944738583       -2.2364187580       -0.1850397565
 H          1.3185301469       -2.7165357111       -1.1725041885
 C          2.0745914066       -3.1943644865        0.7712486315
 C          1.8648086473       -4.6720427843        0.6400243101
 C          3.1791989721       -4.0645184753        0.2544676573
 H          4.0366957478       -4.2407525035        0.8863752114
 H          3.4206257846       -3.9862558365       -0.7960668591
 H          1.8232023712       -5.2694237234        1.5382663465
 H          1.2159388402       -5.0172426546       -0.1508566655
 H          2.1896533693       -2.7767803747        1.7647161737
 O          1.9691737589       -0.2721445400        1.8323257826
