  62
        -98.94368775
 C          1.1383373374        1.4788439154        0.2224919396
 C          1.5933121838        0.4354965045        1.0690660884
 C          2.4674794090       -0.5743655716        0.4590777012
 C          2.7523753706       -0.4835216301       -0.8524202935
 C          3.6428632565       -1.4294058774       -1.6041031542
 C          5.0986389579       -0.9429745587       -1.6079451443
 C          5.6217996746       -0.5583495740       -0.2239573727
 H          6.6663110626       -0.2620943001       -0.3418868045
 H          5.0762739242        0.3193820647        0.1300440235
 C          5.5207395174       -1.6750044853        0.8244506601
 H          6.4606894066       -1.7201898153        1.3784511757
 H          5.3903583412       -2.6373694212        0.3283589102
 C          4.4061219632       -1.4795130720        1.8536572135
 H          4.4782898693       -0.4774002869        2.2835322257
 H          4.5641240352       -2.1960961383        2.6638924738
 C          2.9744554936       -1.6811743463        1.3406081263
 H          2.8948619001       -2.6446376549        0.8324513767
 H          2.3132841626       -1.6957968130        2.2115243278
 H          5.7245237389       -1.7308959876       -2.0309992784
 H          5.1689138602       -0.0676234172       -2.2579536832
 H          3.5785244480       -2.4166519007       -1.1500499932
 H          3.2824761258       -1.4909202553       -2.6327843213
 O          2.2909394311        0.5190458129       -1.6382898567
 C          1.4683718228        1.5226650550       -1.1341295613
 O          1.1370867698        2.3653412911       -1.9868937331
 O          1.2761882083        0.3532977378        2.2864852741
 C          0.2005700436        2.4903198814        0.8583279571
 C         -1.2138527891        1.9635950871        0.8500981293
 C         -2.0464780430        2.1241464092        1.9519105622
 C         -3.3379912067        1.6281537039        1.9375266266
 C         -3.8113849097        0.9325189630        0.8394122328
 C         -2.9821247814        0.7536776337       -0.2610756806
 C         -1.7025827650        1.2883826176       -0.2592712799
 H         -1.0786409481        1.1511327763       -1.1295479252
 N         -3.3999870998        0.0020107267       -1.3795547842
 S         -2.4620060705       -1.3434307070       -1.7394024790
 O         -1.1930379397       -0.9415918026       -2.2876241200
 O         -3.2999154372       -2.1596269758       -2.5915040843
 C         -2.2434847697       -2.1286732760       -0.1541192318
 C         -3.2348033425       -2.9676604695        0.3173716101
 C         -3.1198820899       -3.4866443661        1.5966598745
 C         -2.0330631939       -3.1422649255        2.3869664798
 C         -1.0473323825       -2.2984400954        1.8994484677
 C         -1.1492005151       -1.7897695926        0.6147239818
 H         -0.3954445261       -1.1337138678        0.2074071415
 H         -0.2056970836       -2.0081141844        2.5085105088
 H         -1.9512648863       -3.5327642023        3.3889417917
 H         -3.8810017437       -4.1483328024        1.9775839688
 H         -4.0640533823       -3.2054778565       -0.3293008443
 H         -4.3732604118       -0.2699487410       -1.3425205585
 H         -4.8103209513        0.5238220750        0.8339717916
 H         -3.9757481048        1.7655900918        2.7969332288
 H         -1.6693909671        2.6276189912        2.8296044049
 H          0.5159274412        2.5533523887        1.9127040876
 C          0.3057494120        3.8879208758        0.2673614671
 C         -0.7196596344        4.4598794118       -0.6600272392
 C         -0.6040484417        4.9840586265        0.7380079035
 H         -0.1871420252        5.9684381051        0.8871997585
 H         -1.3873325381        4.7235595440        1.4329487599
 H         -0.3691560616        5.0657034494       -1.4813630930
 H         -1.5717120557        3.8471359111       -0.9116905362
 H          1.3360796978        4.1634865039        0.0673955796
