  62
        -98.93770401
 C         -1.2514373607       -0.9856303795        0.2139861312
 C         -1.7568892902        0.1210883312        0.9370725705
 C         -2.8733548400        0.8716406712        0.3322131900
 C         -3.2929330003        0.5213877004       -0.8974051197
 C         -4.4324349802        1.1018795302       -1.6912856400
 C         -5.8063167003        0.6315258110       -1.1837814794
 C         -5.9622910801        0.6131357722        0.3348955906
 H         -6.9235776102        0.1458200427        0.5640869511
 H         -5.1840628603       -0.0184686077        0.7672863510
 C         -5.9369192996        1.9824449327        1.0096185196
 H         -6.1242648895        1.8239416436        2.0746811497
 H         -6.7543301794        2.5904504227        0.6154348792
 C         -4.6355550193        2.7740686822        0.8682243588
 H         -4.6846469389        3.6103701627        1.5719714982
 H         -4.5498640193        3.2114602914       -0.1229912615
 C         -3.3696817195        1.9942906920        1.2112822192
 H         -2.5344264693        2.7027521018        1.2815362986
 H         -3.4728469795        1.5681366328        2.2158586896
 H         -5.9669432707       -0.3869476092       -1.5456559386
 H         -6.5738217801        1.2705092410       -1.6234654898
 H         -4.3046898505        0.7586024693       -2.7203982897
 H         -4.3673901398        2.1861362201       -1.6957649008
 O         -2.7181576007       -0.4974448904       -1.5964338590
 C         -1.6865708409       -1.2648013303       -1.0815219785
 O         -1.2627234413       -2.1338342911       -1.8660926079
 O         -1.2971750499        0.4726180419        2.0579385101
 C         -0.1114548309       -1.7725091694        0.8330942317
 C          1.0480023490       -1.8463488705       -0.1283601784
 C          1.7106643985       -3.0173893210       -0.4703200876
 C          2.7834058284       -2.9814022421       -1.3449742178
 C          3.2350081488       -1.7853095026       -1.8717926687
 C          2.5769545392       -0.6075123821       -1.5357174295
 C          1.4912879993       -0.6504913811       -0.6782744594
 H          0.9650264597        0.2648195592       -0.4523864600
 N          3.0006115496        0.6349818673       -2.0330399205
 S          2.9145285202        1.9707063181       -1.0310314216
 O          1.5621824504        2.4669952286       -0.9639207018
 O          3.8930774904        2.8894276874       -1.5738275724
 C          3.4575791202        1.3774724992        0.5622942688
 C          2.5777345003        1.2873644803        1.6211303190
 C          3.0296152403        0.7669777510        2.8240903593
 C          4.3450046001        0.3486237007        2.9475263795
 C          5.2202335700        0.4548031295        1.8770044393
 C          4.7737984501        0.9711600688        0.6721899290
 H          5.4261404200        1.0779122979       -0.1791902712
 H          6.2443535499        0.1335248893        1.9770453894
 H          4.6888818201       -0.0602385987        3.8844249498
 H          2.3435855903        0.6861921619        3.6523755495
 H          1.5565285604        1.6135328805        1.4971866089
 H          3.8573769495        0.6130503666       -2.5659742206
 H          4.0765936587       -1.7604501234       -2.5467842989
 H          3.2818316881       -3.9001935924       -1.6140409771
 H          1.3753807083       -3.9607339906       -0.0723225168
 H          0.2117690394       -1.1458880789        1.6825817712
 C         -0.5094195913       -3.1179057288        1.4207441428
 C         -1.9284570613       -3.4061828080        1.8079535432
 C         -1.3056395817       -4.1288832291        0.6532353836
 H         -1.0613017021       -5.1738408191        0.7775637744
 H         -1.6128423117       -3.8661484298       -0.3463897965
 H         -2.1115333414       -3.9509115273        2.7221091036
 H         -2.6690489011       -2.6486976779        1.5943687127
 H          0.2534812187       -3.5081889186        2.0872771630
