  62
        -98.93567802
 C         -2.2520554504       -0.1539101115        0.3575331964
 C         -3.3573318062       -0.7799085280       -0.2720167856
 C         -4.4632390359        0.1129787281       -0.6593296261
 C         -4.3584022932        1.4356766553       -0.4439780334
 C         -5.4264419849        2.4446237740       -0.7502792175
 C         -6.3501078239        2.6611584274        0.4566433019
 C         -6.8698923014        1.3645981601        1.0777697796
 H         -6.0306193879        0.8178052392        1.5139040580
 H         -7.5341456594        1.6414134129        1.8993604404
 C         -7.6190743553        0.4479252504        0.1005962632
 H         -8.5277255358        0.0867882565        0.5868447848
 H         -7.9257135978        1.0158703770       -0.7783866880
 C         -6.8307913313       -0.7857122128       -0.3431676851
 H         -6.4416964217       -1.3072189555        0.5349392272
 H         -7.5211036257       -1.4662967357       -0.8484746265
 C         -5.6640262017       -0.5221844120       -1.3032287713
 H         -6.0101984308        0.0768756662       -2.1477176866
 H         -5.3221987677       -1.4892893596       -1.6832033848
 H         -5.7958224234        3.2091714174        1.2222300829
 H         -7.1926831627        3.2784992061        0.1398598814
 H         -6.0046514669        2.1045998744       -1.6072547343
 H         -4.9428666101        3.3902543382       -1.0009856982
 O         -3.2665998682        2.0056739444        0.1297702727
 C         -2.2030444611        1.2286554178        0.5545050385
 O         -1.2818956086        1.8772673505        1.0936560755
 O         -3.4374668253       -2.0114948430       -0.5093096325
 C         -1.0388653694       -0.9206156022        0.8576833083
 C         -0.0062601832       -1.0834621526       -0.2287297390
 C         -0.3523735144       -1.5498312273       -1.4932624950
 C          0.6125011521       -1.6932420356       -2.4731124381
 C          1.9341157073       -1.3770781755       -2.2132533192
 C          2.2929249506       -0.9198095674       -0.9501689418
 C          1.3210286856       -0.7732629036        0.0302946860
 H          1.6068840683       -0.3937070539        0.9997826451
 N          3.6392555471       -0.6482080002       -0.6517446429
 S          4.0258681551        0.6057715617        0.4104614767
 O          3.7592162930        0.1703256677        1.7581216257
 O          3.3904269576        1.8335868865       -0.0127166670
 C          5.7874364442        0.6949488262        0.1487712136
 C          6.5922725722       -0.2521110730        0.7537165998
 C          7.9596455470       -0.2080609736        0.5336799336
 C          8.4967923122        0.7762906537       -0.2828021051
 C          7.6769850427        1.7214602259       -0.8806810035
 C          6.3080050702        1.6821038374       -0.6661175329
 H          5.6325102193        2.4002553503       -1.1027770402
 H          8.0975797601        2.4878343223       -1.5115848868
 H          9.5615190561        0.8089388127       -0.4516960468
 H          8.6005512997       -0.9392764292        0.9991911175
 H          6.1311179294       -0.9916228872        1.3871431944
 H          4.2168226770       -0.6062009230       -1.4809573880
 H          2.6845936529       -1.4874093159       -2.9812936368
 H          0.3315541496       -2.0522040513       -3.4518195536
 H         -1.3814740189       -1.8039564852       -1.6955401137
 H         -0.5922584068       -0.2778578942        1.6343919622
 C         -1.4036248356       -2.2421402754        1.5230366533
 C         -1.0721550415       -3.5809367324        0.9434067407
 C         -0.3276959215       -3.0837479513        2.1434639534
 H         -0.5180553412       -3.5417458690        3.1023536040
 H          0.6937003734       -2.7607740025        2.0036015366
 H         -1.7964928240       -4.3708286158        1.0696430981
 H         -0.5539225917       -3.6129864430       -0.0016359890
 H         -2.3399416439       -2.1732373181        2.0677019086
