  62
        -98.94515342
 C         -2.2678815664       -0.7362730230       -0.0133375081
 C         -3.2669680059       -0.6669359450        0.9903696722
 C         -4.1431431616        0.5102485980        0.9514190018
 C         -3.9294934183        1.4566994660        0.0192343553
 C         -4.7742131804        2.6831813962       -0.1659985863
 C         -5.9121832494        2.4281503054       -1.1645716910
 C         -6.7073937842        1.1531174168       -0.8832804944
 H         -7.5001998784        1.0931618548       -1.6320361080
 H         -6.0575690785        0.2879439668       -1.0334011346
 C         -7.3238938084        1.0857828790        0.5209456564
 H         -7.3564830724        2.0838247917        0.9592723223
 H         -8.3546572711        0.7359135937        0.4340461975
 C         -6.6099115683        0.1335366382        1.4820204477
 H         -7.2459918195       -0.0028664893        2.3605554323
 H         -6.4918960118       -0.8442194840        1.0083318395
 C         -5.2351154644        0.5964414575        1.9805250744
 H         -4.9336591042       -0.0709836442        2.7930282385
 H         -5.3098864103        1.6102140436        2.3789842421
 H         -6.5831462796        3.2889478568       -1.1496824041
 H         -5.4821642547        2.3498551922       -2.1658540308
 H         -5.1821470645        2.9857205197        0.7965185146
 H         -4.1383744290        3.4834775905       -0.5486239534
 O         -2.9359968651        1.3768501239       -0.9017138815
 C         -2.0866138968        0.2803978585       -0.9509899764
 O         -1.2399704324        0.3386816017       -1.8642181365
 O         -3.4192342630       -1.5511869729        1.8744753014
 C         -1.3425210277       -1.9426506939       -0.0151913970
 C          0.0341430281       -1.4778573923        0.3890653858
 C          0.3143779380       -1.2827309743        1.7390133853
 C          1.5420829596       -0.7922310289        2.1407428292
 C          2.5130683347       -0.4760860227        1.2057964779
 C          2.2361513612       -0.6491447200       -0.1429159290
 C          1.0100558241       -1.1647067934       -0.5434583360
 H          0.8050238299       -1.2825016935       -1.5955953857
 N          3.2098076684       -0.3202494580       -1.1014803616
 S          4.0176382212        1.1428875483       -0.9490726322
 O          3.2179628626        2.1354454532       -0.2688546669
 O          4.4562092100        1.4740052462       -2.2876177869
 C          5.4443462713        0.7272119482        0.0348588767
 C          6.2407060347       -0.3211068487       -0.3832481311
 C          7.3581014713       -0.6530914675        0.3658596313
 C          7.6612148056        0.0665277887        1.5121645533
 C          6.8544063747        1.1188731522        1.9165685221
 C          5.7342979231        1.4552580391        1.1720693490
 H          5.0746506057        2.2616422996        1.4513044584
 H          7.0914272479        1.6779072398        2.8075245743
 H          8.5312707585       -0.1941092323        2.0938369156
 H          7.9877483974       -1.4709395807        0.0545742416
 H          5.9720745870       -0.8527287113       -1.2806479022
 H          2.8952151837       -0.4535293920       -2.0521223323
 H          3.4681791997       -0.0808905299        1.5106288987
 H          1.7465461670       -0.6502510506        3.1910849608
 H         -0.4517431688       -1.5083543162        2.4677127398
 H         -1.7255401798       -2.6015964977        0.7755956299
 C         -1.3798738169       -2.6892310772       -1.3318078180
 C         -0.8117858417       -4.0741935319       -1.4045880261
 C         -2.2938946682       -3.8671343128       -1.4790583891
 H         -2.7901302911       -4.0176106714       -2.4261882149
 H         -2.8930409179       -4.1442175032       -0.6241284390
 H         -0.2882640563       -4.3709542315       -2.3004928357
 H         -0.4028794488       -4.4906169040       -0.4966163103
 H         -1.2634230569       -2.0455345863       -2.1953856977
