  62
        -98.93508090
 C         -1.6913492839       -0.3774045509       -0.2956701729
 C         -2.8235312473       -1.1883352704       -0.0283427426
 C         -4.1407694516       -0.6223892245       -0.3620241147
 C         -4.2118537003        0.6216976705       -0.8644546375
 C         -5.4311201206        1.3874035243       -1.3145620260
 C         -6.6892721770        1.2959398021       -0.4410391562
 C         -6.4234589214        1.1730870154        1.0664421148
 H         -5.3712658524        1.3717526549        1.2777473632
 H         -7.0093143997        1.9289255941        1.5928154534
 C         -6.8079998259       -0.1967456720        1.6306819375
 H         -6.9469331514       -0.1051689042        2.7106222488
 H         -7.7673669272       -0.4949979368        1.2022643015
 C         -5.7883982876       -1.3109874559        1.3983459851
 H         -4.8988149424       -1.1322177319        2.0081503954
 H         -6.2300026181       -2.2485418694        1.7444037934
 C         -5.3258342617       -1.4930431110       -0.0564884206
 H         -6.1417285036       -1.3208318285       -0.7542459428
 H         -4.9805273199       -2.5240798093       -0.1716542128
 H         -7.2735417961        2.1969089363       -0.6360576387
 H         -7.2976183276        0.4525676972       -0.7646709934
 H         -5.1040033861        2.4282210513       -1.3776222734
 H         -5.6770350904        1.0663248242       -2.3311595753
 O         -3.1012719858        1.3841285724       -1.0676437735
 C         -1.8210116878        0.9207711528       -0.7886697625
 O         -0.9274855161        1.7562479910       -1.0186008966
 O         -2.7372416540       -2.3440125194        0.4642804327
 C         -0.3260290179       -0.9560452986        0.0297420516
 C          0.5101718500        0.0437322974        0.7854931032
 C          0.1306820567        0.3967870793        2.0782773569
 C          0.8621332782        1.3167117811        2.8032873562
 C          2.0019496775        1.8875414320        2.2639446716
 C          2.3875710611        1.5440589587        0.9743300111
 C          1.6428292665        0.6282936564        0.2428848775
 H          1.9351270827        0.4178330388       -0.7714741746
 N          3.5362427570        2.1031443926        0.4001903541
 S          4.4717128798        1.2161511418       -0.6558062050
 O          5.7884435863        1.8100933559       -0.5518387301
 O          3.8954338962        1.2077353815       -1.9765187685
 C          4.5011132469       -0.4419014599        0.0060382566
 C          4.8800505841       -0.6240552732        1.3214226860
 C          4.8988680848       -1.9075734489        1.8422364979
 C          4.5441962341       -2.9834201223        1.0427355772
 C          4.1754414200       -2.7857802415       -0.2786247548
 C          4.1517843015       -1.5032017255       -0.8033539675
 H          3.8642387594       -1.3032501782       -1.8233957211
 H          3.9021155031       -3.6235480067       -0.9004967765
 H          4.5559735469       -3.9818733564        1.4504532092
 H          5.1875823164       -2.0652308628        2.8688341372
 H          5.1578967593        0.2303683182        1.9164828956
 H          4.0863310566        2.6906529247        1.0080464109
 H          2.5778054900        2.6047170441        2.8287383551
 H          0.5496823968        1.5873337415        3.8006001357
 H         -0.7571158674       -0.0525620446        2.5020763646
 H         -0.5439566686       -1.7972452221        0.7089668954
 C          0.4041927509       -1.5466166556       -1.1667540634
 C         -0.3447074393       -2.1738846087       -2.3029137266
 C          0.4026074120       -0.8928456468       -2.5145959543
 H          1.3131051161       -0.9103412882       -3.0966930888
 H         -0.1586883831        0.0217183514       -2.6283157653
 H          0.0483708439       -3.0790033746       -2.7405225451
 H         -1.4238895823       -2.1345407402       -2.2741182239
 H          1.3259578227       -2.0371454620       -0.8679033942
