  62
        -98.94426670
 C          1.8880428006        1.3452267189        0.1292863887
 C          2.0912328500        0.3769268583       -0.8839090409
 C          3.4486285897       -0.1778061824       -0.9770964708
 C          4.4096478300        0.2369770976       -0.1331196412
 C          5.8410708798       -0.2256593930       -0.1179414011
 C          6.0673861694       -1.5316216327        0.6560089795
 C          5.5499242987       -2.7947951728       -0.0333400098
 H          5.9370302886       -2.8362671435       -1.0519830699
 H          5.9649039084       -3.6476980527        0.5074488605
 C          4.0203399187       -2.9229865922       -0.0562095196
 H          3.7352855983       -3.9369646719        0.2338535210
 H          3.5860316991       -2.2462947816        0.6837266502
 C          3.3819211986       -2.6448079326       -1.4170523396
 H          3.7088920782       -3.3994568630       -2.1359536493
 H          2.2976277486       -2.7313292120       -1.3095800394
 C          3.6944597791       -1.2561150630       -1.9895712003
 H          4.7249492691       -1.2188770136       -2.3417491105
 H          3.0279662491       -1.0767630631       -2.8366881503
 H          5.6047829796       -1.4389600920        1.6414321495
 H          7.1443154294       -1.6400436431        0.8037553694
 H          6.2008808997       -0.3406325136       -1.1408036211
 H          6.4175787103        0.5652547370        0.3666888784
 O          4.1795752806        1.1728748482        0.8243679184
 C          2.9255480908        1.7347322488        0.9845702083
 O          2.8587830913        2.5704616893        1.9080271579
 H         -0.4280609203       -0.3774314204       -0.3276661602
 C         -0.8229941500       -0.0455312997        0.6212458697
 C         -0.4049261894        1.1706777403        1.1426543291
 C         -0.9222127090        1.5804101212        2.3656217089
 C         -1.8347674393        0.7926930619        3.0466662594
 C         -2.2479273599       -0.4197681082        2.5237600501
 C         -1.7294906702       -0.8400409390        1.3062317302
 N         -2.1548011808       -2.0712116691        0.7553789109
 S         -3.7669647909       -2.1048371886        0.2942316311
 O         -4.5898633407       -2.1074285277        1.4769804512
 O         -3.9041049815       -3.2452231590       -0.5828501583
 C         -3.9965860104       -0.5861952090       -0.6113030196
 C         -4.4208841498        0.5443491215        0.0574031499
 C         -4.5135255094        1.7376187312       -0.6402337506
 C         -4.1796914095        1.7793508604       -1.9850376607
 C         -3.7518619601        0.6357816199       -2.6415146202
 C         -3.6526581306       -0.5591792698       -1.9478775196
 H         -3.3272936710       -1.4711705501       -2.4227694992
 H         -3.4897133403        0.6718952993       -3.6868549803
 H         -4.2569854992        2.7086594602       -2.5277702512
 H         -4.8410854489        2.6302457916       -0.1324070510
 H         -4.6749644297        0.4683313722        1.1017659900
 H         -1.5856308511       -2.3549879497       -0.0306152891
 H         -2.9680927201       -1.0409671676        3.0314935805
 H         -2.2277753390        1.1254874925        3.9952827493
 H         -0.5967853286        2.5202818312        2.7871589184
 C          0.5581664809        2.0425381495        0.3736264585
 H          0.7953809114        2.9126175297        0.9998659180
 C         -0.0970474791        2.5359433992       -0.9033551116
 C         -1.0739885686        3.6681058897       -0.8249682921
 C          0.2737741214        3.8819674288       -1.4448434424
 H          0.3393633213        4.0053975882       -2.5153264224
 H          1.0046032018        4.4575925687       -0.8950519527
 H         -1.9384962387        3.6434683597       -1.4691499119
 H         -1.2584817382        4.1028449302        0.1455152277
 H         -0.2934017295        1.7481840589       -1.6182919612
 O          1.2048045997       -0.0245516817       -1.6856799306
