  62
        -98.93582484
 C          2.3773358402        0.4772581840        0.9093020657
 C          3.4273802309        1.0810610587        0.1725932301
 C          4.7326491874        0.4014777682        0.2451557385
 C          4.8643649268       -0.7130416107        0.9850338787
 C          6.1167765316       -1.5331391263        1.0911652904
 C          6.1477718022       -2.6387028758        0.0264962991
 C          5.8360466310       -2.1445733965       -1.3861914137
 H          5.9170501880       -3.0034148486       -2.0559998336
 H          4.7981820425       -1.8053361422       -1.4235980891
 C          6.7556186178       -1.0200792169       -1.8826353200
 H          7.6607898226       -0.9866826610       -1.2752875067
 H          7.0605851768       -1.2439583174       -2.9070464072
 C          6.1085203043        0.3659235211       -1.9034561406
 H          6.7609672777        1.0373117716       -2.4679968598
 H          5.1536841763        0.3163375922       -2.4327403431
 C          5.8660617261        1.0099607536       -0.5325583220
 H          6.7880198352        0.9908362687        0.0518412731
 H          5.5861497040        2.0539274323       -0.7012900208
 H          5.4086602190       -3.3973243734        0.2943958897
 H          7.1345865265       -3.1049681154        0.0418486419
 H          6.9817269909       -0.8821802922        0.9798480102
 H          6.1435164638       -1.9925781505        2.0806542179
 O          3.8387021772       -1.2539377085        1.6923892773
 C          2.5793830353       -0.6818065500        1.6636180787
 O          1.7306218928       -1.2854440510        2.3522353470
 H         -1.5323860168        0.0074665028        1.0596115795
 C         -1.1504492786        0.0349628961        0.0494230727
 C          0.1299819199        0.5068528219       -0.1968673708
 C          0.6043796506        0.5036889910       -1.5049888920
 C         -0.1934238799        0.0459404388       -2.5376678233
 C         -1.4816951482       -0.3954454237       -2.2919535265
 C         -1.9624188429       -0.4023681062       -0.9879562886
 N         -3.2590944283       -0.8539125044       -0.6975754297
 S         -4.1081212141       -0.0503951566        0.5234254951
 O         -3.8728699086        1.3722269262        0.4286325959
 O         -3.7954341227       -0.6659131472        1.7887656529
 C         -5.7877109961       -0.4344293872        0.0652168080
 C         -6.3142576980       -1.6581309315        0.4339016959
 C         -7.6093618788       -1.9714611218        0.0530860119
 C         -8.3514940414       -1.0621902809       -0.6862872757
 C         -7.8100001660        0.1624287320       -1.0472309151
 C         -6.5148515303        0.4820310852       -0.6707928167
 H         -6.0555967557        1.4249623789       -0.9206596361
 H         -8.3906151756        0.8684401608       -1.6187461905
 H         -9.3596070365       -1.3084391103       -0.9801381369
 H         -8.0347645968       -2.9212375051        0.3344186597
 H         -5.7033001057       -2.3278937252        1.0165508286
 H         -3.8238112384       -0.9943951506       -1.5241678590
 H         -2.1078254779       -0.7380916513       -3.1016946359
 H          0.1866475662        0.0484199060       -3.5482767650
 H          1.5970974052        0.8774415410       -1.7040852859
 C          0.9624662976        1.0296705334        0.9454479663
 H          0.5213464048        0.6338818894        1.8752777066
 C          0.9130573449        2.5493806065        1.0433296911
 C          0.4885673813        3.4411666110       -0.0801207685
 C         -0.4097160206        3.2558284876        1.1036002775
 H         -0.5250172082        4.0726966183        1.8004074020
 H         -1.3056273674        2.6651317801        0.9707459381
 H          1.0113690537        4.3778708514       -0.1980859271
 H          0.2015262107        2.9838228189       -1.0136207835
 H          1.6957967253        2.9339350377        1.6900742943
 O          3.3056651364        2.1250017266       -0.5165887650
