  62
        -98.94145145
 C         -2.3034812527       -1.2366938967        0.2665373238
 C         -1.9003184389       -0.2912166867       -0.7087504659
 C         -2.6895747949        0.9491625393       -0.7533812353
 C         -3.7108542854        1.1329000548        0.1017619187
 C         -4.6242576091        2.3278721893        0.1506232676
 C         -4.0703670631        3.5067173228        0.9626605717
 C         -2.9166697745        4.2646923342        0.3046108912
 H         -3.2030743693        4.5525254865       -0.7073336076
 H         -2.7694511431        5.1836949574        0.8754237514
 C         -1.5922051030        3.4892678522        0.2664817980
 H         -0.7775997784        4.1435228556        0.5869885317
 H         -1.6361756306        2.6625244318        0.9801162081
 C         -1.2191617124        2.9383507412       -1.1100564756
 H         -1.0382092257        3.7679050533       -1.7970513003
 H         -0.2927778485        2.3686264129       -1.0094010433
 C         -2.2706810547        2.0081331831       -1.7279245539
 H         -3.1336577828        2.5821041346       -2.0641819405
 H         -1.8219240393        1.5083285700       -2.5896528400
 H         -3.7536659488        3.1388322819        1.9416520473
 H         -4.8930568781        4.2073516910        1.1228198466
 H         -4.8506940166        2.6578198302       -0.8636018035
 H         -5.5504596508        1.9915918556        0.6218341801
 O         -4.0485995524        0.2112409907        1.0431850600
 C         -3.3416542972       -0.9752371146        1.1644013160
 O         -3.7247960677       -1.7031001509        2.1024605230
 H         -0.1403597773       -0.7800581307        1.7509472772
 C          0.4926796878       -1.4123301889        1.1397057001
 C         -0.0942057923       -2.3965979219        0.3532290733
 C          0.7307445268       -3.1905020756       -0.4330713136
 C          2.1033676100       -3.0133787382       -0.4118729923
 C          2.6831305731       -2.0385324883        0.3776281833
 C          1.8655442601       -1.2177805539        1.1448980896
 N          2.4328667820       -0.2082031996        1.9353656780
 S          3.8162815206        0.5859744909        1.4437794975
 O          4.9666515038       -0.2420324317        1.7120083034
 O          3.7765055176        1.8526200500        2.1410685448
 C          3.6671441954        0.8496299446       -0.3139532487
 C          2.6086259380        1.6064891255       -0.7735022493
 C          2.4802281505        1.8225925865       -2.1355109391
 C          3.4083463540        1.2794466979       -3.0103850452
 C          4.4707839839        0.5281268383       -2.5331881152
 C          4.6043356878        0.3101126663       -1.1715542296
 H          5.4169381669       -0.2647747170       -0.7575466565
 H          5.1931719040        0.1109453036       -3.2161316204
 H          3.3014575025        1.4463020392       -4.0705581750
 H          1.6552403605        2.4071861011       -2.5099177173
 H          1.9072369386        2.0185804009       -0.0648909409
 H          1.7681494977        0.4187732227        2.3612617315
 H          3.7516575267       -1.9073392958        0.4196758023
 H          2.7321269993       -3.6448040277       -1.0207380274
 H          0.3019823532       -3.9436664512       -1.0725512194
 C         -1.5932791966       -2.5686365244        0.4284866712
 H         -1.8329721584       -2.8944443696        1.4551012123
 C         -2.1179121771       -3.6553456535       -0.5010378992
 C         -3.4831124823       -3.5681924095       -1.1139493472
 C         -2.2655852076       -3.4298212842       -1.9749099642
 H         -2.0197517814       -4.2389932457       -2.6468629486
 H         -2.0110197705       -2.4526100303       -2.3532556905
 H         -4.0674583339       -4.4734651721       -1.1856565930
 H         -4.0731774519       -2.6861046090       -0.9108048496
 H         -1.8036351186       -4.6456255329       -0.1864483969
 O         -0.9407579709       -0.4573873963       -1.5031967123
