  62
        -98.94437699
 C         -1.8423407536       -1.0410921252       -0.2053315228
 C         -2.3756630285        0.0959408508       -0.8583278018
 C         -3.8406152126        0.2193911953       -0.8289901648
 C         -4.5720506292       -0.7342282060       -0.2237726004
 C         -6.0650706621       -0.7044221228       -0.0740971709
 C         -6.4775788022       -0.0246067580        1.2391267976
 C         -5.7934737200        1.3211885067        1.4796656082
 H         -4.7224425782        1.1577613465        1.6193072798
 H         -6.1829209365        1.7207678818        2.4185220314
 C         -6.0045506161        2.3498289767        0.3600046087
 H         -6.2459794303        3.3144702888        0.8113966819
 H         -6.8564011172        2.0583578475       -0.2555070396
 C         -4.7845733294        2.5707314172       -0.5364210665
 H         -3.9053418556        2.7713992694        0.0813235037
 H         -4.9662019173        3.4608120146       -1.1448640564
 C         -4.4452483006        1.4227804335       -1.4955726653
 H         -3.6879423700        1.7882865390       -2.1955371376
 H         -5.3338253531        1.1439217629       -2.0657444336
 H         -6.2245093121       -0.6901968069        2.0675970467
 H         -7.5604558475        0.1119594515        1.2317914247
 H         -6.4994389226       -0.1769644550       -0.9210349010
 H         -6.4310985966       -1.7324788388       -0.0712865505
 O         -4.0232817320       -1.8234006027        0.3725649924
 C         -2.6496188907       -1.9991879136        0.4072476712
 O         -2.2757944337       -3.0282085594        1.0053974245
 H          1.8470801341        0.1912292356       -1.0781765988
 C          1.4433520689        0.5521711906       -0.1473630322
 C          0.3441754181       -0.0588814118        0.4343344318
 C         -0.1438509117        0.4513739635        1.6356152772
 C          0.4322566654        1.5615753412        2.2196154844
 C          1.5205373991        2.1791491867        1.6276222041
 C          2.0248702880        1.6703146012        0.4380621042
 N          3.1265362352        2.2748896622       -0.1847287979
 S          4.2997372595        1.3273285784       -0.8987034727
 O          5.4840659929        2.1594876677       -0.9005483151
 O          3.8616836136        0.8589381425       -2.1888209308
 C          4.5245842248       -0.0519706101        0.2115593711
 C          4.8174447463        0.2095781702        1.5357944789
 C          4.9805354570       -0.8532602023        2.4087695211
 C          4.8522746471       -2.1539999179        1.9455635069
 C          4.5672564443       -2.4001575730        0.6118959337
 C          4.3999026803       -1.3400101532       -0.2649932551
 H          4.1716864071       -1.4871480750       -1.3078798812
 H          4.4722812028       -3.4121901708        0.2513972429
 H          4.9766688326       -2.9805837031        2.6272195833
 H          5.2054144871       -0.6655872548        3.4462754991
 H          4.9212243062        1.2304946516        1.8650461125
 H          3.5243688600        3.0556240346        0.3156749530
 H          1.9670240954        3.0535209629        2.0760647419
 H          0.0337798834        1.9506042017        3.1445200424
 H         -0.9949288971       -0.0308703667        2.0976032209
 C         -0.3397296967       -1.2579929466       -0.1745468877
 H         -0.1698506032       -2.1222514874        0.4843042549
 C          0.1553272002       -1.6009696095       -1.5640161844
 C          1.3389716748       -2.5001762389       -1.7470866119
 C         -0.0365566252       -2.9966360698       -2.0740582426
 H         -0.3056337080       -3.1348675469       -3.1105508967
 H         -0.4979590494       -3.7079146075       -1.4042854331
 H          1.8152463863       -2.8826268913       -0.8572075561
 H          2.0164689387       -2.2942525624       -2.5625572697
 H          0.0157578658       -0.7892013147       -2.2693474510
 O         -1.6688636458        0.9639015344       -1.4343095197
