  62
        -98.94092556
 C          1.9891421275       -0.7418421792        0.3151288730
 C          3.1459912492       -1.2679843114       -0.3181903042
 C          4.4262351731       -0.6385491215        0.0289232924
 C          4.4364129788        0.3943580815        0.8903769729
 C          5.6603501739        1.1626567611        1.2949839870
 C          5.8905788697        2.3680795417        0.3729769978
 C          5.8253116171        2.0282310534       -1.1160485180
 H          4.8059742606        1.7265700053       -1.3681798383
 H          6.0331790609        2.9472748598       -1.6683246852
 C          6.8033645858        0.9317862127       -1.5609077538
 H          7.5882899302        0.8099481656       -0.8135249763
 H          7.2855827968        1.2485072715       -2.4881288136
 C          6.1526238306       -0.4246761791       -1.8382760959
 H          5.3048116785       -0.2924543807       -2.5151374204
 H          6.8848814082       -1.0543105463       -2.3506678888
 C          5.6688497750       -1.1977957460       -0.6049665939
 H          5.4115407670       -2.2106091077       -0.9286499631
 H          6.4768171763       -1.2658911644        0.1264880700
 H          6.8651007549        2.8004376842        0.6072683063
 H          5.1256761491        3.1184381542        0.5864522797
 H          5.5202158431        1.5198731532        2.3167102882
 H          6.5237573722        0.5005682524        1.2673261433
 O          3.3098214135        0.8887516340        1.4592483726
 C          2.0574400399        0.3472866509        1.1861183209
 O          1.1288303916        0.9233107053        1.7814615669
 H         -1.3819999593       -0.2798866588        1.4215642636
 C         -1.3235051059        0.1239412203        0.4229096082
 C         -0.3392729135       -0.3272817016       -0.4427639296
 C         -0.2657887918        0.2294949032       -1.7157817415
 C         -1.1504959834        1.2164020610       -2.1093244019
 C         -2.1223891400        1.6745305350       -1.2376672915
 C         -2.1992096528        1.1300224225        0.0372668899
 N         -3.1773062025        1.6021835639        0.9338815763
 S         -4.7740003604        1.5383705248        0.4408242106
 O         -5.0095712952        2.5481323028       -0.5599964648
 O         -5.5573600380        1.6429510183        1.6509024265
 C         -4.9475879111       -0.0853084655       -0.2755793726
 C         -5.1140413513       -1.1595893329        0.5760727865
 C         -5.1705946144       -2.4365284456        0.0420917347
 C         -5.0486367226       -2.6169386526       -1.3274492763
 C         -4.8809663281       -1.5282077458       -2.1688927155
 C         -4.8285619053       -0.2478571320       -1.6409353653
 H         -4.7047189658        0.6240923400       -2.2613859358
 H         -4.7876790170       -1.6717435548       -3.2332957190
 H         -5.0862286143       -3.6124421201       -1.7410626755
 H         -5.3043881688       -3.2852038492        0.6936755332
 H         -5.2104195889       -0.9761110774        1.6342763993
 H         -3.0756757717        1.2301029907        1.8667810102
 H         -2.8161507348        2.4496206965       -1.5211745103
 H         -1.0799348113        1.6383339615       -3.1004926361
 H          0.5018200135       -0.1172177674       -2.3939588854
 C          0.6578873738       -1.3823344910       -0.0406456558
 H          0.8842787906       -1.9913966508       -0.9306686348
 C          0.1132230871       -2.3422002909        1.0070457800
 C          1.0399309843       -3.2352199248        1.7751818770
 C          0.2935893194       -2.1449895834        2.4811903848
 H         -0.5200366581       -2.4246465021        3.1350634588
 H          0.8398729052       -1.2770076216        2.8152578156
 H          0.7460646532       -4.2593159573        1.9485900301
 H          2.1004549983       -3.1052256709        1.6151734946
 H         -0.8281946436       -2.7817824551        0.6909170988
 O          3.1083965326       -2.2238171452       -1.1377888836
