  62
        -98.93194415
 C         -1.9687781487       -1.2800103076       -0.0299673215
 C         -2.3312629251        0.0543541585       -0.3306775222
 C         -3.7396095193        0.4298117686       -0.0764480398
 C         -4.5792631893       -0.4756121612        0.4540411719
 C         -6.0425983924       -0.3325870110        0.7890826395
 C         -6.4684606989        0.9682199804        1.4869992158
 C         -7.2924832296        1.8971264082        0.5935391386
 H         -7.9005280174        2.5445964270        1.2293262389
 H         -7.9774230023        1.2895111997       -0.0016518011
 C         -6.4780962506        2.7958507027       -0.3354496630
 H         -5.9830670400        3.5711085763        0.2535488292
 H         -7.1781663577        3.2969343581       -1.0082250438
 C         -5.4189797860        2.0786463175       -1.1748645216
 H         -5.2052665240        2.7017075107       -2.0460909967
 H         -5.8063034541        1.1315598269       -1.5491241689
 C         -4.0958695578        1.8483588931       -0.4288946364
 H         -4.0693184916        2.4546825438        0.4811993828
 H         -3.2609590220        2.1990969957       -1.0439038070
 H         -5.5916674616        1.4889546941        1.8689335735
 H         -7.0829563976        0.6978634724        2.3472956844
 H         -6.6225002522       -0.4679107690       -0.1274332266
 H         -6.2700144999       -1.1880494924        1.4293643145
 O         -4.1774148914       -1.7437937947        0.7556147845
 C         -2.8836907345       -2.1736204247        0.5328185200
 O         -2.6708885236       -3.3529453466        0.8777274532
 H          1.1112865218       -0.0492791176       -1.5269371581
 C          1.2232469519       -0.0169772723       -0.4545553274
 C          0.4435528191       -0.8394829767        0.3428610546
 C          0.5831040941       -0.7557729974        1.7247823004
 C          1.4725315645        0.1368134443        2.2933395016
 C          2.2393523972        0.9667765452        1.4951047911
 C          2.1047261359        0.8926234223        0.1150561786
 N          2.8737174092        1.7392235986       -0.7001666952
 S          4.5031153505        1.8977900999       -0.3700849696
 O          4.6949162370        2.7974440194        0.7400922305
 O          5.1077583808        2.2990269167       -1.6208384659
 C          5.0342548252        0.2556285775        0.0821983586
 C          5.4520597216       -0.0082278958        1.3702616421
 C          5.8124771534       -1.3037733108        1.7057021460
 C          5.7450492031       -2.3081118358        0.7530403794
 C          5.3264809081       -2.0263639765       -0.5386803263
 C          4.9654559105       -0.7333475249       -0.8793424930
 H          4.6432391315       -0.4773664161       -1.8759131316
 H          5.2773212928       -2.8094142422       -1.2782814700
 H          6.0214700430       -3.3167403157        1.0169778233
 H          6.1405957442       -1.5255268114        2.7084267248
 H          5.4900825447        0.8016508048        2.0802644386
 H          2.6965169109        1.6334524111       -1.6875776105
 H          2.9238802414        1.6829915838        1.9198451051
 H          1.5665317788        0.1922135745        3.3672922531
 H         -0.0256872954       -1.3949185601        2.3499423920
 C         -0.5577737325       -1.8088629653       -0.2328054729
 H         -0.5172250057       -2.7308930697        0.3689489940
 C         -0.2375076514       -2.2153363426       -1.6638444471
 C         -1.2770412955       -2.8785443113       -2.5160473632
 C         -0.7903981337       -1.5044940095       -2.8608196697
 H         -0.1536475755       -1.3914234395       -3.7266392704
 H         -1.4480437855       -0.6665960174       -2.6927889922
 H         -2.2688386861       -2.9811420183       -2.0998678621
 H         -0.9793886317       -3.7051586338       -3.1433529489
 H          0.7740016055       -2.6005259616       -1.7519443394
 O         -1.5374485446        0.9094498954       -0.8012562896
