  62
        -98.93523598
 C          1.9086339719        0.9781441433        0.2930873304
 C          2.3048707838       -0.0032291365        1.2322787408
 C          2.5354537374       -1.3633576778        0.7182257510
 C          2.3089193281       -1.6127362178       -0.5828342673
 C          2.5094195334       -2.9096291858       -1.3179229281
 C          3.9099372923       -2.9704349156       -1.9513483878
 C          5.0064807440       -3.5181397476       -1.0385820726
 H          5.9575616034       -3.3872120564       -1.5594762308
 H          4.8534250927       -4.5900583409       -0.8982009239
 C          5.1041403848       -2.8539464597        0.3371358941
 H          4.9982667238       -1.7727213145        0.2316020407
 H          6.1039982519       -3.0443485748        0.7315692704
 C          4.0661447509       -3.3829177718        1.3382291387
 H          4.5702199909       -3.6799877082        2.2601762590
 H          3.6052708940       -4.2836230533        0.9334545128
 C          2.9737281362       -2.3802755117        1.7371809094
 H          3.3173829114       -1.7864636342        2.5904288923
 H          2.0885440836       -2.9283672025        2.0792774463
 H          4.1720603740       -1.9612052631       -2.2790853744
 H          3.8637065318       -3.6012163399       -2.8413091952
 H          2.3366397698       -3.7550783591       -0.6584318529
 H          1.7617708327       -2.9283879275       -2.1139003154
 O          1.8951955731       -0.6491095558       -1.4492496904
 C          1.6610313298        0.6531022793       -1.0419895775
 O          1.2596852042        1.4017117932       -1.9527924710
 H         -0.6265658022        0.9768007337        1.0773626591
 C         -0.8140652178        1.9015097099        0.5487252651
 C          0.2346720555        2.7847790306        0.3208229873
 C         -0.0287584571        3.9679972500       -0.3549072170
 C         -1.3069030043        4.2391682075       -0.8132101891
 C         -2.3365297596        3.3370971784       -0.6238972089
 C         -2.0842526445        2.1538763890        0.0628368162
 N         -3.1088551851        1.2163121562        0.2898940764
 S         -2.6973479935       -0.4215706199        0.3063222410
 O         -2.1973823724       -0.7592265200        1.6170577879
 O         -1.8400417456       -0.7473197543       -0.8113228472
 C         -4.3111767662       -1.1476448813        0.0819620766
 C         -5.1422391748       -1.2718520370        1.1793985174
 C         -6.4102785122       -1.8022590308        1.0025209154
 C         -6.8245497053       -2.1959435680       -0.2613832036
 C         -5.9789415998       -2.0667699798       -1.3529339725
 C         -4.7097111801       -1.5359251281       -1.1831000674
 H         -4.0138471614       -1.4231620318       -1.9993077785
 H         -6.3018438164       -2.3763267985       -2.3338376015
 H         -7.8117260094       -2.6086854779       -0.3964102410
 H         -7.0692928816       -1.9065810859        1.8492234030
 H         -4.7717071131       -0.9599872634        2.1419058224
 H         -3.9214115997        1.3824947016       -0.2888270047
 H         -3.3250891343        3.5392680426       -1.0073280136
 H         -1.4980317103        5.1586466445       -1.3455789611
 H          0.7698832945        4.6645735037       -0.5499927649
 C          1.5995145300        2.3717708847        0.8127477210
 H          1.5374376167        2.2430817369        1.9073431842
 C          2.6847356599        3.4067410135        0.5603520976
 C          4.1096819631        2.9939925280        0.3468454797
 C          3.3249179890        3.5877743618       -0.7822051624
 H          3.5691454453        4.5906606449       -1.1008793604
 H          2.9965447510        2.9411982456       -1.5803356029
 H          4.3227263781        1.9350063656        0.3193332466
 H          4.8894329181        3.5854007185        0.8028589645
 H          2.5316853086        4.3048481744        1.1510264915
 O          2.4625697483        0.2474876264        2.4594612498
