  62
        -98.94253494
 C          2.6330994303        1.2009951605        0.2447665973
 C          2.7464088398        0.3292260600       -0.8651374679
 C          3.8918655131       -0.5941296817       -0.8411157374
 C          4.7542133692       -0.5567101092        0.1903275044
 C          5.9359004633       -1.4662407700        0.3584901844
 C          5.5636224923       -2.7216456201        1.1594277139
 C          4.2988841814       -3.4198293505        0.6597193476
 H          4.1521862567       -4.3081839764        1.2777792853
 H          3.4399594903       -2.7660086627        0.8283668179
 C          4.3416305828       -3.8276770329       -0.8195441470
 H          5.3737250284       -3.8369324941       -1.1718168274
 H          3.9582514369       -4.8458718324       -0.9131273695
 C          3.4986456897       -2.9481145659       -1.7449316968
 H          2.4860653267       -2.8581098330       -1.3431522656
 H          3.4230226267       -3.4492238066       -2.7137382515
 C          4.0421568690       -1.5368913049       -2.0020972610
 H          5.0857284358       -1.5959985762       -2.3178322861
 H          3.4604871534       -1.1006785295       -2.8195074458
 H          6.4045265032       -3.4165057407        1.1218353757
 H          5.4066120779       -2.4336159157        2.2013884011
 H          6.3139796498       -1.7469625827       -0.6226330791
 H          6.7141315123       -0.9210656406        0.8952584753
 O          4.6182378677        0.2996481574        1.2342321294
 C          3.5569765129        1.1839913508        1.2944956078
 O          3.5473131710        1.9013723616        2.3145097321
 H         -0.2934033045        1.0558534920       -1.3369576012
 C         -0.6007583126        0.9805709288       -0.3053437496
 C          0.2087624403        1.5067328662        0.6904439802
 C         -0.1916368207        1.3662360652        2.0155077658
 C         -1.3740915539        0.7223859508        2.3317303756
 C         -2.1795356791        0.2008248265        1.3345249931
 C         -1.7834621572        0.3257385935        0.0099111857
 N         -2.5898998132       -0.2211116691       -1.0072233856
 S         -4.1731851993        0.3333719501       -1.1051788457
 O         -4.5703423394        0.1229849709       -2.4803486043
 O         -4.2903188547        1.6830127340       -0.6019642799
 C         -5.0873073410       -0.7836059799       -0.0623906596
 C         -5.8127120161       -0.2897359947        1.0040654028
 C         -6.5277875579       -1.1751710777        1.7955614594
 C         -6.5054521640       -2.5311677887        1.5073574617
 C         -5.7732965875       -3.0109240991        0.4313102549
 C         -5.0571761768       -2.1310459834       -0.3644111932
 H         -4.4801275085       -2.4616992638       -1.2119084511
 H         -5.7587366316       -4.0660698550        0.2103226487
 H         -7.0623185425       -3.2183871065        2.1246269334
 H         -7.0977049894       -0.8042050798        2.6322767849
 H         -5.7965324732        0.7719566107        1.1918941363
 H         -2.1516260009       -0.1904263486       -1.9171531036
 H         -3.1022598384       -0.3027122638        1.5733201033
 H         -1.6723555554        0.6256853875        3.3645610068
 H          0.4408226969        1.7644773178        2.7966479754
 C          1.5043311197        2.2132769603        0.3698940688
 H          1.7641636168        2.8371978179        1.2353896830
 C          1.3984427482        3.1079455026       -0.8493196297
 C          0.5938204986        4.3681946131       -0.7568845218
 C          2.0883561108        4.4371742186       -0.8446591349
 H          2.5361666093        4.7882234043       -1.7622953147
 H          2.6397612609        4.7116037065        0.0428880805
 H          0.1291770667        4.5939956929        0.1912257008
 H          0.0110553150        4.6730463750       -1.6128775900
 H          1.3820179263        2.5668177832       -1.7864047868
 O          1.9491571629        0.3131136396       -1.8405718680
