  62
        -98.94593991
 C          2.1139861741        1.4916184637        0.0051441594
 C          1.8356872810        0.3719729630       -0.8155374383
 C          2.8999521445       -0.6398861317       -0.8928542822
 C          4.0538027338       -0.4380527134       -0.2310250317
 C          5.1977227497       -1.4085245232       -0.1856060568
 C          5.0722372454       -2.3594560748        1.0130941641
 C          3.6930576036       -3.0050525884        1.1483878807
 H          3.7333299036       -3.6782130927        2.0074676375
 H          2.9580195684       -2.2310836892        1.3813343486
 C          3.2320508763       -3.7842137485       -0.0911761259
 H          4.0895246245       -4.0109360373       -0.7258775320
 H          2.8089812159       -4.7370784688        0.2333198948
 C          2.1577163793       -3.0774003166       -0.9198755175
 H          1.7490962489       -3.8007610675       -1.6305190540
 H          1.3435745722       -2.7569760554       -0.2651505440
 C          2.6317407186       -1.8614629534       -1.7259354906
 H          3.5109403438       -2.1283466395       -2.3158260394
 H          1.8295854855       -1.5810819780       -2.4147785336
 H          5.2770702685       -1.7946362072        1.9256295965
 H          5.8328956879       -3.1365916881        0.9178022290
 H          5.2231530520       -1.9772121253       -1.1130715660
 H          6.1258779692       -0.8419833446       -0.0926042558
 O          4.2944525991        0.6664101833        0.5215086694
 C          3.3272977740        1.6455354107        0.6758339955
 O          3.6614488899        2.5885535665        1.4215656961
 H         -1.4808570907        2.4800943911       -0.8847099891
 C         -1.4015084104        1.9800642562        0.0674259885
 C         -0.1912119453        1.9550505543        0.7392919099
 C         -0.1228659986        1.2923476035        1.9626849106
 C         -1.2369478401        0.6749124642        2.4971442331
 C         -2.4435554185        0.6938666983        1.8183613250
 C         -2.5192288287        1.3442282213        0.5947767880
 N         -3.7317991553        1.3497529734       -0.1126592845
 S         -4.6318907255       -0.0588283809       -0.1544411673
 O         -5.3827643065        0.0128885225       -1.3889081764
 O         -5.4217999362       -0.1613827503        1.0484873800
 C         -3.4590341761       -1.4032483706       -0.2152143432
 C         -2.4614271772       -1.3752385444       -1.1688887681
 C         -1.5534230937       -2.4195880111       -1.2194271306
 C         -1.6593182693       -3.4719049992       -0.3233304829
 C         -2.6701113509       -3.4887207689        0.6252893941
 C         -3.5787013477       -2.4444152108        0.6832194288
 H         -4.3748008393       -2.4128800849        1.4095600663
 H         -2.7498396443       -4.3083323727        1.3213086515
 H         -0.9479109891       -4.2818417184       -0.3648789990
 H         -0.7593741120       -2.3917078447       -1.9476413770
 H         -2.3855057326       -0.5462868074       -1.8533741218
 H         -3.6743642965        1.7761580533       -1.0257369555
 H         -3.3233837992        0.2182092823        2.2204055208
 H         -1.1677617256        0.1693317334        3.4483887687
 H          0.8234481700        1.2659246814        2.4863716181
 C          1.0669704453        2.5774274025        0.1857445270
 H          1.4694371271        3.2674889689        0.9405676634
 C          0.8662966471        3.3366159984       -1.1087986131
 C          0.3071530089        4.7267257171       -1.0838902558
 C          1.7534266915        4.5056617938       -1.4084891465
 H          2.0834122688        4.6552326096       -2.4256622100
 H          2.4936501063        4.7703487434       -0.6674789188
 H         -0.3545041022        5.0336074892       -1.8800417896
 H          0.0623088964        5.1490898220       -0.1210693368
 H          0.6002388021        2.6915646535       -1.9382877638
 O          0.7612013981        0.2225922190       -1.4521797716
