  62
        -98.94503464
 C          1.9741600188        1.0410406012       -0.4744313097
 C          1.5860005480        1.4380051009        0.8297996501
 C          0.4868843571        2.4144635700        0.8988091197
 C         -0.0842462328        2.8509390595       -0.2380721205
 C         -1.2405858335        3.8048991586       -0.3168863909
 C         -2.5806108129        3.0584710875       -0.3524748414
 C         -2.7320309725        2.0121514273        0.7512922685
 H         -3.7341450321        1.5855752965        0.6633198581
 H         -2.0261323217        1.1957551279        0.5819132687
 C         -2.5258080335        2.5515853275        2.1735249386
 H         -2.6235976244        3.6383719774        2.1810870286
 H         -3.3113106034        2.1485244968        2.8162181583
 C         -1.1899391834        2.1520781885        2.8046451891
 H         -1.2429749540        2.3580994885        3.8776620991
 H         -1.0408110224        1.0762066687        2.6823533291
 C          0.0504419962        2.8739752696        2.2610419196
 H         -0.1172233347        3.9538780494        2.2686166695
 H          0.8840343162        2.6501194302        2.9334629699
 H         -2.6734580421        2.5523176774       -1.3160405515
 H         -3.3851618235        3.7916581268       -0.2720020917
 H         -1.2086526644        4.4764276586        0.5387236391
 H         -1.1370191437        4.3909777387       -1.2318805608
 O          0.3097730780        2.4393826999       -1.4709225903
 C          1.3311055188        1.5168707307       -1.6166367400
 O          1.5712779595        1.2012494809       -2.8015901799
 H          0.5359861904       -0.8936064300       -0.5507674603
 C          1.2308771709       -1.6643509694       -0.2560575301
 C          2.5859837907       -1.3682361083       -0.2224216996
 C          3.4684965513       -2.3647235076        0.1779327208
 C          2.9948727022       -3.6141806480        0.5392549106
 C          1.6404119225       -3.8943051091        0.5209927800
 C          0.7480083918       -2.9054552998        0.1229735597
 N         -0.6373063480       -3.1477872010        0.0778519192
 S         -1.7123032291       -2.0727688718        0.7980168088
 O         -1.0086806503       -0.9884369713        1.4337100891
 O         -2.5581536588       -2.8793420426        1.6553204885
 C         -2.7227201292       -1.4305952626       -0.5268985016
 C         -2.1477183391       -0.9196922622       -1.6730811313
 C         -2.9629658992       -0.3535494628       -2.6408872416
 C         -4.3353499294       -0.3063082339       -2.4515772122
 C         -4.9012259494       -0.8303786244       -1.2998927524
 C         -4.0899550593       -1.3942352138       -0.3285497821
 H         -4.4861331293       -1.8106911941        0.5831402077
 H         -5.9687346194       -0.7969813953       -1.1533112628
 H         -4.9632828594        0.1410110956       -3.2057385924
 H         -2.5146790192        0.0529971876       -3.5340271015
 H         -1.0786811891       -0.9594391013       -1.8101681109
 H         -0.8919763773       -4.0913870112        0.3339852191
 H          1.2737135131       -4.8669749594        0.8128564299
 H          3.6904104627       -4.3799085774        0.8478690708
 H          4.5266327712       -2.1610277867        0.2077809212
 C          3.0520836697       -0.0054775679       -0.6853748193
 H          3.1945523302       -0.0681118478       -1.7760950393
 C          4.3629950491        0.4174515732       -0.0540479288
 C          5.6663234697        0.0801408442       -0.7124489083
 C          5.1678372485        1.4928393638       -0.7186253185
 H          5.6649676577        2.2229010442       -0.0980179683
 H          4.7846471785        1.8960728635       -1.6451166886
 H          6.5125291396       -0.1596026151       -0.0861870980
 H          5.6330250505       -0.4679285758       -1.6422367484
 H          4.3213977087        0.4235375631        1.0286282311
 O          2.1334823879        1.0139666313        1.8805555403
