  62
        -98.94628123
 C          1.5382930277        1.4673841857       -0.0791443644
 C          1.5086505026        0.1067724620        0.3128831882
 C          2.8014788367       -0.4662945923        0.7085082860
 C          3.9027624123        0.3060922698        0.7149184763
 C          5.2869620868       -0.1318889430        1.1108794787
 C          6.0687667420       -0.8226919386       -0.0150969559
 C          5.5976392522       -2.2351891779       -0.3641819648
 H          6.3635969412       -2.6782703690       -1.0039246244
 H          5.5472269731       -2.8347793984        0.5451562337
 C          4.2497712802       -2.2905419042       -1.0969903239
 H          4.0145293813       -1.3026816488       -1.4998175955
 H          4.3264643242       -2.9722956330       -1.9471146413
 C          3.0783679857       -2.7658135538       -0.2371004712
 H          3.2392396350       -3.8055405295        0.0561706940
 H          2.1698092691       -2.7180630553       -0.8419135977
 C          2.8451984980       -1.9299255365        1.0277969517
 H          1.8736733345       -2.2029452164        1.4468559962
 H          3.6194827986       -2.1375510663        1.7658698274
 H          6.0260208535       -0.1932611161       -0.9070861864
 H          7.1131017110       -0.8788038589        0.3009792078
 H          5.8283377458        0.7710259429        1.4015827669
 H          5.2286876300       -0.7948048209        1.9746486074
 O          3.8786097334        1.6223296706        0.3702508210
 C          2.7051843694        2.2288174376       -0.0517824194
 O          2.8283916773        3.4326661783       -0.3583805480
 O          0.4639619080       -0.5906254099        0.3337782815
 C          0.2566496804        2.1312769802       -0.5496198701
 C         -0.8149420843        1.9528840676        0.4971853391
 C         -0.5500566223        2.3544767469        1.8045132825
 C         -1.4887079100        2.1766110495        2.8015392531
 C         -2.7064599100        1.5808824574        2.5210603741
 C         -2.9847328710        1.1884980144        1.2179605199
 C         -2.0488136282        1.3916372960        0.2126521749
 H         -2.3016480558        1.0975196487       -0.7911452011
 N         -4.2126714589        0.5954772911        0.8979746815
 S         -4.3395333336       -0.5169206564       -0.3395578064
 O         -4.3227470646        0.1575938559       -1.6143122298
 O         -5.5581994769       -1.2383620808       -0.0343696137
 C         -2.9477061429       -1.6237574415       -0.2081544047
 C         -2.7094813558       -2.2496838551        0.9980676003
 C         -1.6552825557       -3.1420169446        1.0915658736
 C         -0.8646946778       -3.3969266849       -0.0169983590
 C         -1.1190314228       -2.7629927681       -1.2213896344
 C         -2.1690369706       -1.8660591639       -1.3198530173
 H         -2.3955426551       -1.3446116736       -2.2369949570
 H         -0.4971863192       -2.9559775121       -2.0818039001
 H         -0.0395507392       -4.0877563969        0.0599773781
 H         -1.4482757438       -3.6313725378        2.0300887076
 H         -3.3436548689       -2.0365404416        1.8436238262
 H         -4.7980798740        0.3591364910        1.6848128563
 H         -3.4348845095        1.4252436373        3.3020508917
 H         -1.2676137503        2.4919441888        3.8102542048
 H          0.4097821202        2.8010444295        2.0278537227
 H          0.4777719364        3.2039927038       -0.6466024336
 C         -0.1344474212        1.5843165570       -1.9067559944
 C         -0.9771505056        2.4018593962       -2.8374222069
 C          0.4728196299        2.1750452212       -3.1417579896
 H          0.7333093363        1.5150699550       -3.9556588849
 H          1.1588667573        2.9996180067       -3.0120077857
 H         -1.7202742578        1.8991008078       -3.4385937017
 H         -1.2775955152        3.3843121988       -2.5054802905
 H         -0.2879986035        0.5107169256       -1.8909465872
