  62
        -98.93820225
 C         -1.7946999091       -1.0688314265       -0.1040499883
 C         -2.2640789047        0.0659795887       -0.8041599211
 C         -3.7288591740        0.2213518642       -0.8864087532
 C         -4.5188352300       -0.7035214943       -0.3139397847
 C         -6.0208343574       -0.7070554863       -0.2391999398
 C         -6.5023959700       -0.0592611493        1.0701232437
 C         -6.6760467167        1.4579576919        1.0131258408
 H         -7.5461276676        1.6965307080        0.3978339711
 H         -6.8898675834        1.7990278755        2.0286733499
 C         -5.4711646968        2.2356789723        0.4771622548
 H         -5.5584002224        3.2678690960        0.8220681823
 H         -4.5508273403        1.8306144022        0.9020170517
 C         -5.3837599396        2.2307748562       -1.0562736574
 H         -5.2725757039        3.2560249723       -1.4155715631
 H         -6.3233860917        1.8604333394       -1.4659472996
 C         -4.2128158984        1.4285297834       -1.6425171784
 H         -3.3323066618        2.0745442160       -1.7210253536
 H         -4.4653981856        1.1227105953       -2.6635639657
 H         -5.7871394130       -0.3188679668        1.8547039442
 H         -7.4631117271       -0.4988777105        1.3456911088
 H         -6.4511540516       -0.2126157414       -1.1049053119
 H         -6.3293670760       -1.7545370725       -0.2424615775
 O         -4.0221192885       -1.7831709262        0.3511071832
 C         -2.6619324297       -1.9924973494        0.4782710530
 O         -2.3531872860       -3.0146015519        1.1234136828
 O         -1.5014522034        0.9168273600       -1.3337323813
 C         -0.3020513418       -1.3183833306        0.0274534452
 C          0.3560080316       -0.1337177291        0.6897977252
 C         -0.1383215484        0.2922993111        1.9211152876
 C          0.4083377846        1.3850291645        2.5634234853
 C          1.4682883011        2.0714875221        1.9966715892
 C          1.9729129204        1.6517490171        0.7722144396
 C          1.4250042091        0.5473517662        0.1305321891
 H          1.8234340493        0.2563950361       -0.8266931120
 N          3.0371783925        2.3383802061        0.1764603630
 S          4.1462270532        1.5708170941       -0.7970065494
 O          5.3047372981        2.4389778527       -0.7670130091
 O          3.5948717881        1.3120870829       -2.1032638446
 C          4.5314221180        0.0269652423        0.0126985007
 C          4.6353075262       -1.1171936022       -0.7509007323
 C          4.9545668837       -2.3148883350       -0.1313168750
 C          5.1635281272       -2.3471264209        1.2383005112
 C          5.0616639053       -1.1879750055        1.9922247808
 C          4.7460256407        0.0124365668        1.3767399976
 H          4.6658498414        0.9267553177        1.9412935512
 H          5.2260819128       -1.2161088195        3.0573484113
 H          5.4076911296       -3.2805197705        1.7205332676
 H          5.0351480139       -3.2159976108       -0.7179795187
 H          4.4587504744       -1.0466937619       -1.8120433344
 H          3.4446640424        3.0795357748        0.7255747853
 H          1.8919854417        2.9325822530        2.4905760230
 H          0.0088748145        1.7068297501        3.5133657097
 H         -0.9692265674       -0.2436517107        2.3601537606
 H         -0.1986644697       -2.1850188610        0.6965448010
 C          0.2832563018       -1.6756677620       -1.3218667732
 C          1.4972096301       -2.5486496453       -1.4087512782
 C          0.1570165355       -3.0873113278       -1.8078916685
 H         -0.0420868044       -3.2566043355       -2.8555131448
 H         -0.3298404197       -3.7938412748       -1.1512908342
 H          2.2174692929       -2.3457833357       -2.1864649170
 H          1.9311737939       -2.8954456592       -0.4832324697
 H          0.1689385976       -0.8832568561       -2.0531948548
