  62
        -98.94382185
 C         -1.9837164904       -1.3540910284        0.0319774908
 C         -1.9114066405       -0.1027601024       -0.6268557928
 C         -3.1959681826        0.5755980312       -0.8413752185
 C         -4.3391958206       -0.0103256700       -0.4419397286
 C         -5.7248246042        0.5543535504       -0.6003831942
 C         -6.1256200079        1.5386361303        0.5072788580
 C         -5.4378853096        2.9034542435        0.4475710071
 H         -5.5547438812        3.3247220681       -0.5513966095
 H         -5.9680704541        3.5593148162        1.1410735949
 C         -3.9508624430        2.8821776116        0.8289167456
 H         -3.7244217944        1.9553771187        1.3613898672
 H         -3.7390127763        3.7040441061        1.5166880763
 C         -2.9909375069        3.0210373010       -0.3527333077
 H         -3.1137456582        4.0053248811       -0.8101013458
 H         -1.9683346748        2.9512374338        0.0275222323
 C         -3.1697092804        1.9506747129       -1.4371765359
 H         -4.0799020271        2.1392032925       -2.0057911787
 H         -2.3150469852        2.0043095097       -2.1155661075
 H         -5.9283233682        1.0736177602        1.4761301451
 H         -7.2038734226        1.6958985615        0.4287759245
 H         -5.8148133222        1.0412970236       -1.5717287656
 H         -6.4121174319       -0.2939370863       -0.5714585008
 O         -4.3671050149       -1.2301972948        0.1591063123
 C         -3.1946023813       -1.9183875468        0.4307755611
 O         -3.3601167518       -3.0052553591        1.0221747643
 H          2.0292647893       -1.9669056338        0.1752217205
 C          1.6167993355       -1.3246019121        0.9381778060
 C          0.2452991992       -1.2855263233        1.1434121911
 C         -0.2480777511       -0.4559382564        2.1463984542
 C          0.6008054162        0.3330581808        2.8990768589
 C          1.9672644649        0.3011436197        2.6818957031
 C          2.4733279917       -0.5372484841        1.6990758614
 N          3.8691408909       -0.5748637694        1.4858874615
 S          4.5750383866        0.7887065937        0.8130485097
 O          5.9909290549        0.5064703253        0.7484526875
 O          4.1843584189        1.9419279868        1.5814138154
 C          3.9053881954        0.8725776737       -0.8379675682
 C          2.5795805506        1.2216808986       -1.0000642961
 C          2.0312229852        1.1983527786       -2.2725237915
 C          2.8173021929        0.8384111073       -3.3562418399
 C          4.1507885051        0.4998018216       -3.1786013354
 C          4.6999704589        0.5056014343       -1.9068047758
 H          5.7277474402        0.2387810290       -1.7198531508
 H          4.7590404304        0.2232032844       -4.0249472198
 H          2.3855016342        0.8197782636       -4.3448395500
 H          0.9854979009        1.4318806530       -2.3908225632
 H          1.9838797373        1.4969598104       -0.1449963039
 H          4.1720168612       -1.3880361661        0.9669154379
 H          2.6424648093        0.9237533139        3.2453653468
 H          0.1957946621        0.9785456555        3.6641494423
 H         -1.3149272436       -0.4282654365        2.3235793687
 C         -0.7108491545       -2.1237883868        0.3287390985
 H         -1.0119933280       -2.9881633587        0.9393549891
 C         -0.1031621594       -2.6280387833       -0.9656429268
 C          0.6337522973       -3.9324638560       -1.0057790185
 C         -0.7209244077       -3.8169015381       -1.6358560814
 H         -0.7938034017       -3.8233602441       -2.7128918886
 H         -1.5596239177       -4.2833464294       -1.1391954865
 H          0.7153319747       -4.4921632418       -0.0859647877
 H          1.4915277259       -4.0215354959       -1.6558143196
 H          0.2467929107       -1.8210544928       -1.5996682933
 O         -0.8372473025        0.4224553141       -1.0128971246
