  62
        -98.94789801
 C         -0.8453674279       -1.6875098762        0.4741276902
 C         -1.6157957231       -1.3997952812       -0.6789888966
 C         -2.7707557384       -0.5126543296       -0.4723468597
 C         -3.0319032827       -0.0429883985        0.7606289759
 C         -4.1858715313        0.8485588810        1.1178224659
 C         -3.8126169212        2.3346547397        1.0528584598
 C         -3.1247804028        2.7494688112       -0.2477828920
 H         -2.9766954933        3.8315143246       -0.2066501755
 H         -2.1303015718        2.3010990568       -0.3035226241
 C         -3.8983899664        2.3910947781       -1.5237825884
 H         -4.9491191342        2.2136183737       -1.2887308401
 H         -3.8559556958        3.2445693745       -2.2038428754
 C         -3.3311312276        1.1904456589       -2.2847474900
 H         -2.2484722981        1.3098050048       -2.3841129747
 H         -3.7573755484        1.1926146394       -3.2920111946
 C         -3.6153624208       -0.1870719393       -1.6709274876
 H         -4.6783892832       -0.2717669023       -1.4323030745
 H         -3.3704948768       -0.9440265908       -2.4221016904
 H         -4.7243947343        2.9212882772        1.1837170899
 H         -3.1412278682        2.5636806534        1.8839707727
 H         -5.0127270171        0.6437635591        0.4402794382
 H         -4.4963780224        0.6080460005        2.1366571200
 O         -2.2579779043       -0.3259348410        1.8401353190
 C         -1.1427410498       -1.1426804451        1.7219176954
 O         -0.5132554366       -1.3077641927        2.7864080949
 H          0.7581641867       -0.0300486643       -0.3008920713
 C          1.4757990731       -0.6745173291       -0.7824308158
 C          1.4009032924       -2.0439317122       -0.5773635773
 C          2.3188536501       -2.8611224060       -1.2279660836
 C          3.2724514583       -2.3115027012       -2.0667855155
 C          3.3365979137       -0.9455632014       -2.2746360165
 C          2.4210619838       -0.1201509671       -1.6307812219
 N          2.4385459192        1.2613798376       -1.8286586252
 S          1.5519358837        2.3387193624       -0.9329316424
 O          0.1394164926        2.1331076474       -1.1301380065
 O          2.0664579954        3.6297483092       -1.3389754266
 C          1.9926447524        2.0355311678        0.7680033733
 C          1.0055724493        1.7800105206        1.6973836484
 C          1.3643911543        1.5280025134        3.0114312034
 C          2.7025685430        1.5416620886        3.3722917472
 C          3.6839764452        1.8123361042        2.4305918814
 C          3.3289269920        2.0604826714        1.1148521428
 H          4.0656199588        2.2763910296        0.3586024183
 H          4.7230849506        1.8244430143        2.7176769876
 H          2.9787460391        1.3380350330        4.3947987437
 H          0.5984199785        1.2995058410        3.7352561505
 H         -0.0262939438        1.7657674431        1.3793834551
 H          3.2126891884        1.6535909645       -2.3384969743
 H          4.0761473149       -0.5204054559       -2.9351635280
 H          3.9775139638       -2.9570384215       -2.5680786244
 H          2.2825593007       -3.9283113350       -1.0811499807
 C          0.3673406816       -2.5924170338        0.3785611200
 H          0.8155918573       -2.6031163278        1.3841417746
 C         -0.0605937522       -4.0044089862        0.0243299889
 C          0.6424479955       -5.1880799076        0.6161433384
 C         -0.7409725974       -4.8348832126        1.0697931588
 H         -1.5637302095       -5.4675388717        0.7724777475
 H         -0.8619623003       -4.3927923605        2.0483991557
 H          0.7693103856       -6.0697998344        0.0059942973
 H          1.4573927387       -4.9991857227        1.2986577290
 H         -0.4285752587       -4.0817860524       -0.9923371073
 O         -1.3643103810       -1.8721926669       -1.8186389840
