  62
        -98.94456793
 C          1.2293133858        1.1579033404        0.1353735771
 C          2.0196960305        0.6061290508        1.1753794929
 C          2.6564685635       -0.6846354736        0.8899747719
 C          2.4204660062       -1.2987536363       -0.2828015616
 C          2.9793776638       -2.6270610644       -0.7156282210
 C          4.3881315614       -2.5426690348       -1.3193955821
 C          5.5110204201       -2.2707838303       -0.3176092419
 H          5.4462315606       -2.9864706650        0.5026150623
 H          6.4541853235       -2.4540387074       -0.8361216156
 C          5.5278289188       -0.8421988140        0.2441761384
 H          6.5482129662       -0.4531448627        0.2209799530
 H          4.9238036967       -0.1926171460       -0.3936932149
 C          5.0309704150       -0.7211874371        1.6851016195
 H          5.7061489178       -1.2609189388        2.3528131383
 H          5.0515079373        0.3345177093        1.9685012607
 C          3.6049615570       -1.2428399771        1.9069128940
 H          3.5936387726       -2.3325910516        1.8813528839
 H          3.2661691407       -0.9142636465        2.8929303227
 H          4.3927035229       -1.7681272630       -2.0897263955
 H          4.5905987136       -3.4987575521       -1.8073904507
 H          2.9838334966       -3.3151869063        0.1302942718
 H          2.3023650470       -3.0202162399       -1.4769465840
 O          1.6008387335       -0.7710137295       -1.2282375122
 C          0.9886187519        0.4678719365       -1.0533993200
 O          0.2736236158        0.8100141043       -2.0111898033
 H         -1.2535503159        0.9385015622        1.5210511337
 C         -1.6930671332        1.5435587556        0.7406464255
 C         -0.8951015507        2.4320264525        0.0288895701
 C         -1.4805336384        3.2036821124       -0.9657076818
 C         -2.8310599107        3.0802874151       -1.2405650856
 C         -3.6194735920        2.1889101848       -0.5372219068
 C         -3.0438689043        1.4122560000        0.4627077795
 N         -3.8301744150        0.5193681343        1.2135594629
 S         -3.3124647766       -1.0409443894        1.5068865295
 O         -4.4800479874       -1.7072552797        2.0419932294
 O         -2.1432522452       -1.0311498760        2.3487446310
 C         -2.9245661799       -1.7134718958       -0.0961690518
 C         -3.9601738537       -2.1748751743       -0.8857926222
 C         -3.6737309857       -2.6513416448       -2.1541537494
 C         -2.3646190900       -2.6489902719       -2.6123896177
 C         -1.3368069205       -2.1848258935       -1.8069778919
 C         -1.6175654995       -1.7118224179       -0.5353827104
 H         -0.8428019454       -1.3421911254        0.1189408603
 H         -0.3193491451       -2.1650626118       -2.1635117175
 H         -2.1404749283       -3.0120328098       -3.6030008535
 H         -4.4688961594       -3.0185067497       -2.7828247905
 H         -4.9614695290       -2.1683505961       -0.4864310720
 H         -4.8069837382        0.5181557405        0.9560351481
 H         -4.6723054897        2.0928304781       -0.7549980156
 H         -3.2740683322        3.6813153609       -2.0199807193
 H         -0.8753424032        3.8857842352       -1.5394977160
 C          0.5673153294        2.4997037840        0.3896534998
 H          0.6344072348        2.6305896121        1.4833731850
 C          1.2925471117        3.6845271300       -0.2306858049
 C          2.7784909986        3.6573324056       -0.4255786394
 C          1.8668501013        3.6476806539       -1.6139875048
 H          1.8052956214        4.5424399543       -2.2161445414
 H          1.7596036372        2.7342604370       -2.1770427273
 H          3.3416566921        4.5534523316       -0.2121014455
 H          3.2985901162        2.7451439372       -0.1705100135
 H          0.8700541913        4.6300493204        0.0958266851
 O          2.1847138731        1.1665009975        2.2923366968
