  62
        -98.94051330
 C          1.2730610806        1.7056445597       -0.4077158920
 C          1.2846345149        0.3719982931       -0.8849709391
 C          2.5535339547       -0.3664299827       -0.7299274334
 C          3.5992282513        0.2208322141       -0.1251904560
 C          4.9946098388       -0.3113044671        0.0912884649
 C          5.1441114915       -1.7772899121        0.5148871147
 C          4.0264378179       -2.3036959959        1.4266417714
 H          4.4733835389       -2.7722584318        2.3056719531
 H          3.4047124476       -1.4785173970        1.7793832768
 C          3.1390679745       -3.3425018891        0.7385694295
 H          3.7749035226       -4.0288944865        0.1740248018
 H          2.6230828093       -3.9264366105        1.5050554647
 C          2.0645269027       -2.7730405430       -0.1872416012
 H          1.2919005864       -2.2792942232        0.4098213774
 H          1.5917355346       -3.6169976192       -0.6975523470
 C          2.5565092641       -1.7759704099       -1.2493799123
 H          3.5355293430       -2.0597060518       -1.6294979809
 H          1.8417383644       -1.7912057356       -2.0767630413
 H          5.2066686405       -2.4088715806       -0.3700809739
 H          6.1031221451       -1.8605544583        1.0291444528
 H          5.5648623582       -0.1448610017       -0.8275524999
 H          5.4269398672        0.3360448149        0.8582857773
 O          3.5285482572        1.4903476613        0.3668238770
 C          2.3848903176        2.2543230015        0.2360202564
 O          2.4820298590        3.4010252489        0.7204038777
 H         -1.2718933663        0.3637002888        0.0160707895
 C         -1.5126943281        1.1400757479        0.7228403665
 C         -0.9020142298        2.3799339315        0.6050892110
 C         -1.2041205822        3.3670951052        1.5356301888
 C         -2.0930857414        3.1114213907        2.5648367641
 C         -2.6881371474        1.8688173093        2.6891174254
 C         -2.3907356249        0.8752905718        1.7626503086
 N         -2.9925288289       -0.3880009580        1.8380115091
 S         -2.1584784225       -1.7470649791        1.3266190092
 O         -2.8691303723       -2.8513299311        1.9428902850
 O         -0.7537271136       -1.6622285783        1.6547784045
 C         -2.4221012628       -1.8287539164       -0.4321114108
 C         -3.4443215871       -1.1106268247       -1.0183321442
 C         -3.6408897605       -1.2246663626       -2.3852593993
 C         -2.8230059867       -2.0532022904       -3.1371198388
 C         -1.8078134441       -2.7748028511       -2.5304433089
 C         -1.6053297230       -2.6644270563       -1.1647928583
 H         -0.8187939518       -3.1979061061       -0.6567990855
 H         -1.1680751619       -3.4162946269       -3.1154366534
 H         -2.9739299674       -2.1336524001       -4.2023593605
 H         -4.4280562745       -0.6606582963       -2.8598791735
 H         -4.0566319855       -0.4638737836       -0.4119282243
 H         -3.5428498968       -0.5640554621        2.6653029413
 H         -3.3738609711        1.6654781437        3.4976017354
 H         -2.3185055851        3.8845450735        3.2838253348
 H         -0.7228505455        4.3311931147        1.4588232584
 C          0.0733504461        2.6357315561       -0.5180040866
 H          0.4743254010        3.6503929704       -0.3880849765
 C         -0.6256494377        2.5629578995       -1.8620340308
 C         -1.4743882070        3.7167601965       -2.3005156256
 C         -0.1648390055        3.4485741754       -2.9784586044
 H         -0.1718582716        3.0544371869       -3.9834120875
 H          0.6600882114        4.1173258195       -2.7785071276
 H         -2.3847288630        3.5087545118       -2.8408806825
 H         -1.5374786236        4.5705926485       -1.6428644345
 H         -0.9546420113        1.5656969285       -2.1215948255
 O          0.3094927673       -0.1931160459       -1.4458700692
