  62
        -98.93606418
 C          2.4847982711        0.1359374424       -0.5949071262
 C          2.1792036337        0.6560816668        0.6865168346
 C          1.7663132672        2.0673559885        0.7205278366
 C          1.6925955041        2.7634188395       -0.4275446170
 C          1.2883274223        4.2054579472       -0.5380618746
 C         -0.2163817247        4.3620266288       -0.7904985233
 C         -1.0950065996        3.5662588648        0.1746278189
 H         -2.1343810511        3.8093563719       -0.0598786029
 H         -0.9689019288        2.4979173743       -0.0170071413
 C         -0.8273318405        3.8428963767        1.6607152035
 H         -1.7864904982        3.9419237059        2.1730574161
 H         -0.2980858082        4.7901736247        1.7751498563
 C         -0.0528192538        2.7323987918        2.3741516697
 H         -0.4967326686        1.7657952783        2.1233944559
 H         -0.1565440233        2.8798441920        3.4527587031
 C          1.4479445806        2.6615190170        2.0633663427
 H          1.8953386300        3.6532687708        2.1641218525
 H          1.9108550898        1.9974750690        2.7991945732
 H         -0.4660013327        5.4231122730       -0.7227095286
 H         -0.4351824044        4.0240365339       -1.8064482077
 H          1.5682487930        4.7220932222        0.3782274331
 H          1.8339017556        4.6470313458       -1.3744091050
 O          1.9748584723        2.2222918183       -1.6424960340
 C          2.3600303530        0.8973323199       -1.7547127378
 O          2.5755602255        0.5214606333       -2.9276898602
 H          0.3817227905       -1.2536273403       -1.1801471573
 C          0.6001275443       -1.9748932445       -0.4038301800
 C          1.9241429641       -2.1829056922       -0.0209254455
 C          2.1637608780       -3.1254540802        0.9699686016
 C          1.1132000890       -3.8056661886        1.5658163513
 C         -0.1979245849       -3.5535410117        1.2142995343
 C         -0.4534611335       -2.6190943774        0.2172581819
 N         -1.7687646599       -2.3122123284       -0.1825635600
 S         -2.0759392240       -0.6759810459       -0.4926623526
 O         -1.7635776577       -0.3999014574       -1.8743363486
 O         -1.4213697604        0.1468551995        0.4957810128
 C         -3.8443718643       -0.6234307276       -0.2675328154
 C         -4.6476284390       -1.2080571555       -1.2288382584
 C         -6.0215715293       -1.1982652838       -1.0491977179
 C         -6.5664496958       -0.6061068823        0.0809193277
 C         -5.7478376007       -0.0209554661        1.0348751548
 C         -4.3721683455       -0.0297006497        0.8628019417
 H         -3.6950070207        0.4155203618        1.5740998506
 H         -6.1736011884        0.4414281656        1.9107398562
 H         -7.6362353414       -0.5989841071        0.2175974485
 H         -6.6612555821       -1.6499658142       -1.7900383720
 H         -4.1789966290       -1.6461308490       -2.0946517416
 H         -2.4611192799       -2.6966673670        0.4471101816
 H         -1.0127365480       -4.0640400284        1.7048288627
 H          1.3258526354       -4.5296752314        2.3380391179
 H          3.1597688547       -3.3293853911        1.3173968905
 C          2.9194284410       -1.3177769917       -0.7585161281
 H          2.7844390894       -1.5372466452       -1.8321500600
 C          4.4175618091       -1.3984558478       -0.5063617907
 C          5.0638152993       -1.5597172740        0.8333940905
 C          5.1909845483       -2.6448597910       -0.1959504161
 H          6.1491199109       -2.7660096615       -0.6798529107
 H          4.6555435469       -3.5704093244       -0.0655460284
 H          4.4204099679       -1.6938326558        1.6874106944
 H          5.9332984644       -0.9542397715        1.0457119025
 H          4.9120147341       -0.7025066319       -1.1821053436
 O          2.2647624468       -0.0112660651        1.7486769333
