  62
        -98.94469753
 C          0.9994761573        1.3378977560        0.3456227287
 C          1.3583842767        0.5159297479       -0.7509506652
 C          2.3324482957       -0.5513114213       -0.4601598518
 C          2.8052394637       -0.7014093329        0.7895696204
 C          3.8420735710       -1.7048431140        1.2047502904
 C          5.2568435783       -1.1204530152        1.0872070097
 C          5.5385821567       -0.4460615331       -0.2553429822
 H          4.9065153513        0.4397849032       -0.3504533973
 H          6.5743816305       -0.1005872229       -0.2347603290
 C          5.3264106237       -1.3506317160       -1.4773386733
 H          5.3189362381       -2.3966367191       -1.1686251255
 H          6.1683949960       -1.2208028346       -2.1605067137
 C          4.0563946713       -1.0498657291       -2.2757874445
 H          4.0154203894        0.0162426291       -2.5133288411
 H          4.1122275986       -1.5929563883       -3.2231974304
 C          2.7362099453       -1.4430923214       -1.6009137905
 H          1.9418264902       -1.3556004365       -2.3496143168
 H          2.7852914007       -2.4857222605       -1.2779032950
 H          5.9767801642       -1.9244913540        1.2500696431
 H          5.3912291014       -0.3780918615        1.8771696288
 H          3.6611712133       -1.9785476347        2.2458006216
 H          3.7531764570       -2.5937471831        0.5825670206
 O          2.4180995040        0.0885632225        1.8224008063
 C          1.5200720290        1.1220393023        1.6259280495
 O          1.2680623622        1.7784765199        2.6555036360
 H         -1.3436864532        0.6083723985       -1.1564447278
 C         -1.9493713300        1.1024902229       -0.4125542954
 C         -1.4005125402        2.0914468318        0.3926391689
 C         -2.2121558037        2.7187794046        1.3314921185
 C         -3.5450063533        2.3733740446        1.4566856219
 C         -4.0888641871        1.3864001720        0.6557049595
 C         -3.2852652112        0.7473061991       -0.2817965877
 N         -3.8199295734       -0.2598816168       -1.1011318241
 S         -2.9380447425       -1.6562821634       -1.3584184941
 O         -1.9639966773       -1.4623758594       -2.3991695685
 O         -3.9449079869       -2.6640248429       -1.6232927522
 C         -2.1452113510       -2.0011722009        0.2019821465
 C         -0.7699102050       -2.0520444840        0.2791912526
 C         -0.1776502413       -2.3280890692        1.5014840052
 C         -0.9670109503       -2.5357849333        2.6209769480
 C         -2.3495573638       -2.4808925332        2.5272329501
 C         -2.9467983038       -2.2147148486        1.3067026911
 H         -4.0183596402       -2.1826981784        1.1956372377
 H         -2.9597336858       -2.6453599709        3.4005299714
 H         -0.4990479786       -2.7418494098        3.5706838554
 H          0.8977156135       -2.3701137480        1.5727353128
 H         -0.1877590226       -1.8694969523       -0.6102890552
 H         -4.7903074053       -0.4734222233       -0.9198496461
 H         -5.1283892529        1.1118421450        0.7496243604
 H         -4.1638649640        2.8711083527        2.1872479693
 H         -1.7866599807        3.4774939772        1.9713062459
 C          0.0420330172        2.5134654621        0.2414822803
 H          0.2840954700        3.1635917004        1.0938772042
 C          0.2079386117        3.3231157155       -1.0309625552
 C         -0.1948341443        4.7657815480       -1.0331143860
 C          1.2555585730        4.3918243889       -1.0896012138
 H          1.7937665950        4.5342789844       -2.0146777567
 H          1.8576331630        4.5500012239       -0.2062675697
 H         -0.5732772759        5.1832816203       -0.1124438623
 H         -0.6570398472        5.1683737187       -1.9213029507
 H          0.0314204732        2.7486649768       -1.9308288183
 O          0.9103812083        0.6436323631       -1.9209038725
