  62
        -98.94702317
 C         -1.5247067453       -1.0454864490        0.0827698709
 C         -2.5490418186       -0.6048027736        0.9512463301
 C         -3.1235476728        0.7093633643        0.6466464072
 C         -2.6293038606        1.4327303435       -0.3751171373
 C         -3.0868243402        2.8058069234       -0.7872551434
 C         -4.3174144418        2.8080442557       -1.7048076446
 C         -5.6388179316        2.4543748264       -1.0211290748
 H         -5.7692776873        3.0832474610       -0.1398924014
 H         -6.4381671412        2.7041764777       -1.7214966759
 C         -5.7717878096        0.9769205870       -0.6265963681
 H         -6.7556073755        0.6075822182       -0.9241538954
 H         -5.0296169388        0.3872358449       -1.1693951449
 C         -5.6200209615        0.7040096351        0.8697362333
 H         -6.4348584423        1.1851137981        1.4151113107
 H         -5.6966468003       -0.3742380753        1.0310094566
 C         -4.2880273652        1.1777438260        1.4666236233
 H         -4.1858422228        0.7458996955        2.4655851957
 H         -4.2786349692        2.2642150463        1.5550186716
 H         -4.4072434184        3.8123527055       -2.1250959637
 H         -4.1373853195        2.1163297955       -2.5308375340
 H         -3.2903586111        3.4044531108        0.1013810894
 H         -2.2505773877        3.2603940953       -1.3233193713
 O         -1.6145200179        0.9915381040       -1.1626004331
 C         -1.0349435538       -0.2482952622       -0.9529887440
 O         -0.1150328842       -0.5273213503       -1.7456715756
 O         -2.9555257321       -1.2741339529        1.9414012981
 C         -0.8772679237       -2.3978034555        0.3261087521
 C          0.6086194882       -2.2127616166        0.5016057084
 C          1.5655944292       -2.9933124513       -0.1337813577
 C          2.9138097040       -2.7106889973        0.0075175643
 C          3.3341121745       -1.6332576384        0.7658593911
 C          2.3847850166       -0.8633165093        1.4235166513
 C          1.0412136795       -1.1706004495        1.3132109357
 H          0.3104581635       -0.5514145138        1.8198900893
 N          2.8150948230        0.3029127266        2.1255596759
 S          2.5984309782        1.6650919242        1.1439398828
 O          3.1408849499        2.7790219234        1.8942894818
 O          1.2137247540        1.8122399545        0.7452514635
 C          3.6382625647        1.2893724765       -0.2454109405
 C          3.0982906145        0.6716454609       -1.3560745651
 C          3.9442207670        0.3333344130       -2.4016547640
 C          5.2994603776        0.6129999932       -2.3176984978
 C          5.8234252412        1.2340128618       -1.1933881441
 C          4.9866271006        1.5732862083       -0.1430152949
 H          5.3430779521        2.0563143316        0.7518895665
 H          6.8778899220        1.4496470527       -1.1312531576
 H          5.9506947349        0.3437015315       -3.1343056696
 H          3.5328911898       -0.1535779298       -3.2712499741
 H          2.0401742963        0.4574268656       -1.3917236847
 H          2.2906207829        0.4559509745        2.9779449853
 H          4.3771755322       -1.3766462671        0.8528953289
 H          3.6434775560       -3.3219494903       -0.5002308414
 H          1.2529401313       -3.8150595731       -0.7570780335
 H         -1.3031827336       -2.7628613269        1.2728414890
 C         -1.2409057470       -3.3651497550       -0.7809255182
 C         -1.3171837611       -4.8369098399       -0.5071128747
 C         -2.5724016633       -4.0506440460       -0.7332222232
 H         -3.1133923792       -4.1915196951       -1.6568640044
 H         -3.2069134336       -3.8391258850        0.1151909750
 H         -0.9989296615       -5.5218166115       -1.2783602225
 H         -1.1035653048       -5.1704637798        0.4969935670
 H         -0.8800759501       -3.0391249576       -1.7501815361
