  62
        -98.93685885
 C         -2.4753146335       -1.0171220188        0.4144045846
 C         -2.5513566191        0.1662255993       -0.3535394618
 C         -3.7064151461        1.0513496763       -0.0970123921
 C         -4.5997699825        0.6960783850        0.8451215056
 C         -5.8616675306        1.4104638242        1.2505374466
 C         -6.9998845256        1.2260146656        0.2339192717
 C         -6.5863793531        1.3746905716       -1.2278386594
 H         -5.7995486135        0.6524029571       -1.4527786756
 H         -7.4505096780        1.1150502594       -1.8451481793
 C         -6.1249001150        2.7721211012       -1.6345550541
 H         -6.9289280582        3.4855150051       -1.4402560456
 H         -5.9507592671        2.7545881223       -2.7134928093
 C         -4.8502388336        3.2794212997       -0.9566982489
 H         -5.0520176133        3.6176539024        0.0560598023
 H         -4.5127436490        4.1575070613       -1.5150551480
 C         -3.6891949345        2.2898703092       -0.9602826253
 H         -3.5190120528        1.9404979486       -1.9850582106
 H         -2.7726727500        2.8254131709       -0.6844513538
 H         -7.4081216551        0.2206617001        0.3633687686
 H         -7.7892682844        1.9427940154        0.4663784981
 H         -6.1739739160        0.9777411293        2.2035704412
 H         -5.6574325311        2.4639326331        1.4168547187
 O         -4.4782956396       -0.4550315720        1.5680430310
 C         -3.4288842931       -1.3311673711        1.3814346900
 O         -3.4495297269       -2.3337257329        2.1247910851
 H          0.9143974646       -1.6808189255       -1.3875040941
 C          1.0210266544       -1.2178342892       -0.4190010371
 C         -0.0164523974       -1.2796839126        0.4962982486
 C          0.1576595741       -0.6761513168        1.7395635427
 C          1.3319164436       -0.0181295204        2.0479191646
 C          2.3596790610        0.0567678352        1.1232151017
 C          2.2011948479       -0.5484976352       -0.1148460690
 N          3.2321128448       -0.4663532045       -1.0631873055
 S          4.8120548006       -0.7607522107       -0.5921254045
 O          5.4992687148       -1.1462928663       -1.8053738469
 O          4.8726268419       -1.6992381376        0.5044127880
 C          5.4124614416        0.8314661640       -0.0677602478
 C          6.0142464964        0.9658655884        1.1680565949
 C          6.4872198859        2.2111806429        1.5516900605
 C          6.3521690478        3.2938807275        0.6963623003
 C          5.7475540535        3.1416613084       -0.5426241030
 C          5.2735762414        1.8993143762       -0.9324998671
 H          4.7993898422        1.7408071580       -1.8866822655
 H          5.6436320177        3.9862408805       -1.2047040300
 H          6.7198929255        4.2622256705        0.9970944500
 H          6.9575023402        2.3314431836        2.5144467595
 H          6.0917925111        0.0974541705        1.8028598097
 H          3.0190127893       -0.9058317216       -1.9464406385
 H          3.2765496920        0.5730649541        1.3558079529
 H          1.4494840550        0.4454579628        3.0157709596
 H         -0.6471018595       -0.7312100220        2.4606917910
 C         -1.3216349587       -1.9838933185        0.2149520681
 H         -1.4511617448       -2.7690722589        0.9740091848
 C         -1.3979416835       -2.6182278333       -1.1576917997
 C         -0.7617828127       -3.9524332211       -1.4046741037
 C         -2.2545505926       -3.8321132191       -1.3480386468
 H         -2.8154586368       -3.9291342002       -2.2654918381
 H         -2.7684602774       -4.2181663123       -0.4796719383
 H         -0.2586877786       -4.4272316815       -0.5756265125
 H         -0.2996068390       -4.1367557123       -2.3630679233
 H         -1.3848492652       -1.8870577367       -1.9578850554
 O         -1.6999146818        0.4788035905       -1.2270085278
