  62
        -98.94131424
 C         -2.3458147541       -0.8949517621       -0.4353180499
 C         -3.2287051479       -0.1958729677        0.4290883961
 C         -3.5369181300        1.1907817546        0.0700858546
 C         -2.9865088452        1.7270543458       -1.0336657940
 C         -3.2056741478        3.1261535205       -1.5427149562
 C         -2.3095273635        4.1765131345       -0.8724407892
 C         -2.6868161701        4.5288014041        0.5671612437
 H         -2.1294897229        5.4293340133        0.8322947667
 H         -3.7479809718        4.7757799747        0.6132165631
 C         -2.3661052285        3.4317915365        1.5921831507
 H         -1.6529211598        2.7249176783        1.1596372004
 H         -1.8810662656        3.8785182703        2.4631998529
 C         -3.5853682765        2.6613475114        2.0994459267
 H         -4.2392215839        3.3363145126        2.6562750585
 H         -3.2372052130        1.8846201016        2.7849702681
 C         -4.4086884185        1.9838088557        0.9967267111
 H         -5.1076169913        1.2890931314        1.4688607465
 H         -4.9763172531        2.7281272365        0.4387452911
 H         -2.3673264583        5.0864213769       -1.4745289856
 H         -1.2760497590        3.8217055095       -0.9024438867
 H         -4.2527711583        3.4029928645       -1.4153624043
 H         -2.9766957503        3.1075856174       -2.6104322924
 O         -2.1606133931        1.0226874863       -1.8499366497
 C         -1.7996823047       -0.2898909803       -1.5681172787
 O         -1.0248529996       -0.7774498542       -2.4148045438
 O         -3.7474647369       -0.7176483513        1.4529073252
 C         -1.9999057700       -2.3165470810       -0.0258213742
 C         -0.7548626876       -2.3203810987        0.8301401762
 C         -0.7933296050       -2.8099798628        2.1305574028
 C          0.3394142227       -2.7906318634        2.9244625272
 C          1.5253879006       -2.2722117763        2.4393925995
 C          1.5760093823       -1.7847015469        1.1371540244
 C          0.4431879821       -1.8207162839        0.3375249546
 H          0.4967151031       -1.4305885181       -0.6678901123
 N          2.7753268714       -1.2748153638        0.6157343561
 S          2.7058598784        0.0212807607       -0.4666044339
 O          1.7098059346        0.9763752073       -0.0339210833
 O          2.5843663781       -0.4979413191       -1.8042858132
 C          4.3455032943        0.6912221298       -0.2460748380
 C          4.5344897593        1.7853698330        0.5763469246
 C          5.8199610993        2.2699121970        0.7632701526
 C          6.8891835046        1.6529134157        0.1316752966
 C          6.6841216483        0.5552783808       -0.6913507440
 C          5.4015317578        0.0673980884       -0.8839436320
 H          5.1904470249       -0.7754075624       -1.5212808462
 H          7.5170206044        0.0793670213       -1.1831761950
 H          7.8882030197        2.0314705466        0.2793749071
 H          5.9814370844        3.1250528339        1.3995736163
 H          3.6719855257        2.2358097891        1.0409659027
 H          3.4829582035       -1.1318573077        1.3236099665
 H          2.4078844547       -2.2434064978        3.0602908613
 H          0.2949845180       -3.1703833994        3.9338423543
 H         -1.7260114167       -3.1873709924        2.5229854043
 H         -2.8372831611       -2.6443915575        0.6064742749
 C         -1.8614381405       -3.2916886326       -1.1765887595
 C         -2.0776414519       -4.7517502867       -0.9176705768
 C         -3.0831834683       -3.9738192034       -1.7112688667
 H         -3.1507621371       -4.1438184653       -2.7751657784
 H         -4.0292661807       -3.7381947166       -1.2459330517
 H         -1.4521802573       -5.4623365883       -1.4355469157
 H         -2.3449523493       -5.0478775218        0.0853562215
 H         -1.0956231104       -3.0125660441       -1.8885575559
