  62
        -98.94330695
 C         -2.3563488440       -0.5338192164        0.1228586902
 C         -3.3875236112       -0.3080917427        1.0677840108
 C         -4.3436459287        0.7561363667        0.7371208225
 C         -4.1732048955        1.4634607552       -0.3948790244
 C         -5.0962496421        2.5439853288       -0.8772574975
 C         -6.1881528013        1.9742287672       -1.7936964151
 C         -6.9005281255        0.7498624469       -1.2189324782
 H         -7.6685846381        0.4536461053       -1.9367106423
 H         -6.1894785951       -0.0766057879       -1.1502284308
 C         -7.5455989177        0.9778087198        0.1552477214
 H         -7.6575424114        2.0468762922        0.3393586715
 H         -8.5476135122        0.5436696827        0.1480747203
 C         -6.7920387510        0.3389492784        1.3233078088
 H         -6.5959242452       -0.7130747953        1.1011968503
 H         -7.4390273186        0.3719767354        2.2039453226
 C         -5.4650467312        1.0064947364        1.7059482866
 H         -5.6198782441        2.0779323486        1.8480943524
 H         -5.1395322566        0.5770621214        2.6579457998
 H         -6.9173451073        2.7617454718       -1.9923991012
 H         -5.7290095889        1.6886723800       -2.7429519407
 H         -5.5485958345        3.0378502129       -0.0195035666
 H         -4.5083534622        3.2732020741       -1.4371405421
 O         -3.1533816738        1.2396619862       -1.2615129452
 C         -2.2241920076        0.2345248550       -1.0338258385
 O         -1.3560216202        0.1341321647       -1.9212139914
 O         -3.5019444310       -0.9663505047        2.1362969973
 C         -1.3430370402       -1.6294100992        0.4092408557
 C          0.0056773356       -0.9955660402        0.6431632748
 C          0.2200020381       -0.2983539517        1.8297534153
 C          1.4292484025        0.3222261848        2.0762210623
 C          2.4500245208        0.2680271939        1.1423811337
 C          2.2467445602       -0.4230919506       -0.0434808949
 C          1.0334528039       -1.0569337166       -0.2835874524
 H          0.8885163687       -1.5827763051       -1.2141395727
 N          3.2702315347       -0.4645543293       -1.0039591500
 S          4.8215132641       -0.8737166158       -0.5212740174
 O          5.4632519535       -1.3962868132       -1.7079225285
 O          4.8054521860       -1.7419162652        0.6333449291
 C          5.5686633767        0.6867669331       -0.1003914478
 C          5.5464701392        1.6953011823       -1.0436705900
 C          6.1369362160        2.9108552775       -0.7374272564
 C          6.7389108100        3.0955634694        0.4984628258
 C          6.7551322858        2.0722753272        1.4336962163
 C          6.1652051622        0.8541304477        1.1338890067
 H          6.1488182862        0.0321281360        1.8317366109
 H          7.2234485663        2.2180027258        2.3938556109
 H          7.1980729584        4.0428057225        0.7336007123
 H          6.1255836297        3.7090779993       -1.4620799950
 H          5.0706068950        1.5117503435       -1.9926496583
 H          3.0115071747       -0.9359903328       -1.8580829620
 H          3.3949694534        0.7532726811        1.3249200575
 H          1.5802826920        0.8563602415        3.0020157448
 H         -0.5809427844       -0.2482538712        2.5545596861
 H         -1.6698317062       -2.0862639534        1.3538575393
 C         -1.3487383461       -2.6902200302       -0.6707865248
 C         -0.7191453379       -4.0228442608       -0.3987478894
 C         -2.2095966881       -3.9040880623       -0.4992791145
 H         -2.7022347487       -4.3131676781       -1.3686594429
 H         -2.7911029472       -3.9795649697        0.4078081258
 H         -0.1871011960       -4.5169249826       -1.1977397694
 H         -0.2855249835       -4.1780104920        0.5777494864
 H         -1.2641158871       -2.2816120835       -1.6709927388
