  62
        -98.93700130
 C         -1.8281980668       -1.4318830212        0.1159011379
 C         -2.1562563163       -0.4001808738       -0.7957755848
 C         -3.5379554459        0.1012014638       -0.7344433741
 C         -4.4063378075       -0.4200333869        0.1493999357
 C         -5.8577721299       -0.0550446948        0.3134379982
 C         -6.1492905839        1.3774342833        0.8009122851
 C         -6.4055684026        2.3889812596       -0.3231558714
 H         -6.7565460128        1.8523348538       -1.2055008568
 H         -7.2162584211        3.0539119824       -0.0183380227
 C         -5.2189867259        3.2794593444       -0.7045857156
 H         -5.4531288332        3.7582450501       -1.6579518260
 H         -5.1115801961        4.0700030972        0.0418064793
 C         -3.8667669467        2.5759307495       -0.8228436333
 H         -3.1621383638        3.2693073175       -1.2869559922
 H         -3.4757175598        2.3627442812        0.1752736465
 C         -3.8946072686        1.2584357141       -1.6220425686
 H         -4.8716720359        1.1052642867       -2.0773702423
 H         -3.1456620963        1.2889223026       -2.4157899020
 H         -5.3354418580        1.7167874182        1.4413976307
 H         -7.0460634801        1.3236042291        1.4202484027
 H         -6.3721283595       -0.2262291404       -0.6349433241
 H         -6.2546943860       -0.7658631768        1.0410905183
 O         -4.0549298017       -1.4147151020        1.0081418553
 C         -2.7730359275       -1.9319785670        1.0196384080
 O         -2.5960671149       -2.8321099523        1.8644660579
 H          0.3738562033        0.4243002486       -0.3999902013
 C          0.8563282414        0.0468454493        0.4892730424
 C          0.5296156963       -1.2192815082        0.9535686059
 C          1.1574926532       -1.6873415862        2.1014899844
 C          2.0877510032       -0.9064014019        2.7660919329
 C          2.4106193441        0.3553304063        2.2998160372
 C          1.7820873507        0.8332038923        1.1575278915
 N          2.1191170387        2.1110042595        0.6604441869
 S          3.7323652852        2.2889310143        0.2359230293
 O          4.5144282704        2.5045832084        1.4274876713
 O          3.7669750410        3.3499519497       -0.7454753213
 C          4.1640205966        0.7233317788       -0.5018026617
 C          4.9449260584       -0.1739350949        0.1973623990
 C          5.1984322004       -1.4165019902       -0.3608045871
 C          4.6642991472       -1.7400323047       -1.5980649747
 C          3.8814010157       -0.8271727985       -2.2879718401
 C          3.6239932972        0.4161257931       -1.7348179181
 H          3.0208972774        1.1506490467       -2.2447303662
 H          3.4653632997       -1.0797010377       -3.2503245972
 H          4.8598240762       -2.7097023852       -2.0283996550
 H          5.8061411392       -2.1293487464        0.1725602565
 H          5.3386699512        0.1179378903        1.1570239955
 H          1.5305425045        2.3913055202       -0.1120396634
 H          3.1388806894        0.9757566145        2.7969388436
 H          2.5669945429       -1.2843265349        3.6561998887
 H          0.9048281561       -2.6678730189        2.4777997368
 C         -0.4541578842       -2.0798703767        0.1976744435
 H         -0.6001720320       -3.0042914063        0.7716582026
 C          0.1129201504       -2.4439606866       -1.1623258478
 C          1.1750259842       -3.4963145396       -1.2468040349
 C         -0.2053692543       -3.7811263335       -1.7567404605
 H         -0.3621941464       -3.8461656253       -2.8229777457
 H         -0.8358615757       -4.4454374136       -1.1833337681
 H          1.9712844417       -3.3648876303       -1.9623460491
 H          1.4829213633       -3.9705496107       -0.3275230127
 H          0.1807195384       -1.6020577510       -1.8379812351
 O         -1.3578274918        0.0971186979       -1.6360071856
