  62
        -98.94522009
 C         -1.6135174926       -0.2331492086       -0.6041127701
 C         -2.8904973825       -0.6935073209       -1.0093852350
 C         -3.9535614620       -0.6240287291        0.0011969874
 C         -3.6567728972       -0.1806718710        1.2364126660
 C         -4.6494895712       -0.0202813273        2.3504966523
 C         -5.2575081952        1.3893546413        2.3552151371
 C         -5.7675912382        1.8464997748        0.9885465836
 H         -6.2013801754        2.8401863577        1.1194727519
 H         -4.9188662325        1.9529022092        0.3092410536
 C         -6.8089268197        0.9134654862        0.3549249157
 H         -7.2358873241        0.2621248667        1.1183507159
 H         -7.6237479099        1.5195583515       -0.0465468366
 C         -6.2777066385        0.0609419160       -0.7989214198
 H         -5.7654571563        0.7011374950       -1.5214454994
 H         -7.1324652619       -0.3903369309       -1.3096876298
 C         -5.3277212539       -1.0772623393       -0.4051915283
 H         -5.7832423619       -1.6812443417        0.3822517707
 H         -5.1855314141       -1.7112771681       -1.2852789449
 H         -6.0761297304        1.4091577797        3.0769673335
 H         -4.4927908146        2.0943763942        2.6893410514
 H         -5.4346723166       -0.7658461188        2.2405449795
 H         -4.1328275702       -0.1873312026        3.2972567673
 O         -2.4125132609        0.2208892111        1.5999331116
 C         -1.3612524275        0.2158293996        0.6927301789
 O         -0.2858833117        0.6345634269        1.1599966802
 H          2.1321486610       -0.0351364616       -0.7505160634
 C          1.7870522745       -1.0531934038       -0.7503509139
 C          0.5018937463       -1.3500183408       -1.1722207199
 C          0.0901546274       -2.6811483349       -1.1727256342
 C          0.9456670059       -3.6836530629       -0.7604956757
 C          2.2235269932       -3.3788828292       -0.3213998305
 C          2.6416636572       -2.0553148202       -0.3100459344
 N          3.9352561180       -1.6999397710        0.1168955230
 S          4.0626845833       -0.5674067265        1.3576750787
 O          5.4096681101       -0.7486785388        1.8611005496
 O          3.0036087995       -0.7301396496        2.3257706914
 C          3.9672217661        1.0131122673        0.5464620028
 C          4.9988434623        1.3632529603       -0.3028464744
 C          4.9471116092        2.5875417997       -0.9491098011
 C          3.8727280671        3.4373423012       -0.7312163191
 C          2.8487655123        3.0716790749        0.1291919157
 C          2.8906813392        1.8466368533        0.7778470836
 H          2.0943805099        1.5141097268        1.4265162419
 H          2.0093682879        3.7286356646        0.2954117669
 H          3.8301537393        4.3901558585       -1.2354369563
 H          5.7402416237        2.8752535812       -1.6201628839
 H          5.8171800149        0.6755831982       -0.4361212730
 H          4.5280894135       -2.4926490849        0.3228065266
 H          2.8897668519       -4.1603154616        0.0128385241
 H          0.6150453624       -4.7115550440       -0.7715184072
 H         -0.9128162078       -2.9163888113       -1.5016197494
 C         -0.4752089602       -0.2865185789       -1.6100157512
 H         -0.9367781497       -0.6194158818       -2.5507432571
 C          0.1526174788        1.0739636502       -1.8223273177
 C          1.0132626557        1.3167182617       -3.0250529642
 C         -0.3416019770        1.9499671600       -2.9323128281
 H         -0.4046082615        3.0135642798       -2.7588461336
 H         -1.1311290632        1.5632355847       -3.5601104586
 H          1.8846681635        1.9440659455       -2.9134812494
 H          1.1436019811        0.4984220317       -3.7166907414
 H          0.4320809490        1.5588640523       -0.8950270071
 O         -3.1290041336       -1.1421045624       -2.1628950477
