  62
        -98.93688431
 C         -1.5208687988       -1.5048401100        0.1377085099
 C         -2.6825713487       -1.0987473504        0.8361042702
 C         -3.3997406990        0.0767129697        0.3076672807
 C         -2.8862901493        0.7269074601       -0.7509809892
 C         -3.4005302896        1.9835035101       -1.3987322188
 C         -2.7527467197        3.2278286401       -0.7664208185
 C         -3.4919358596        3.7978063296        0.4428162517
 H         -2.8784239897        4.6060701296        0.8480185419
 H         -4.4366493097        4.2366500995        0.1152846620
 C         -3.7788972993        2.7918226592        1.5599275115
 H         -2.8990970092        2.1670528193        1.7269374412
 H         -3.9556257092        3.3520934690        2.4802295917
 C         -4.9988653792        1.9040694991        1.2742868814
 H         -5.6779256191        1.9345327088        2.1291923015
 H         -5.5505661694        2.3126539193        0.4280785016
 C         -4.6783740390        0.4257452693        1.0205465210
 H         -5.5124914590       -0.0299622807        0.4753438410
 H         -4.6121957387       -0.0992818910        1.9792054708
 H         -1.7328561396        2.9645451602       -0.4749779888
 H         -2.6894488800        4.0133233603       -1.5222943983
 H         -4.4838117096        2.0331454500       -1.3424116786
 H         -3.1068037497        1.9318436805       -2.4489537388
 O         -1.7366260493        0.3328361204       -1.3635243695
 C         -1.0318263191       -0.7902469496       -0.9581306099
 O         -0.0174776991       -1.0235460792       -1.6364981402
 O         -3.0993190785       -1.6869357807        1.8713153101
 C         -0.7556924585       -2.7046062400        0.6674287395
 C          0.7205733815       -2.3942065798        0.6954547593
 C          1.6933700315       -3.1942864594        0.1125913890
 C          3.0258419714       -2.8192855992        0.1501535989
 C          3.4166385413       -1.6411338993        0.7577391392
 C          2.4502344513       -0.8314504296        1.3413119295
 C          1.1214563214       -1.2202389799        1.3228815196
 H          0.3716999713       -0.5850879801        1.7801418899
 N          2.8293660112        0.3879083602        1.9403852198
 S          3.6555616508        1.4803492207        0.9721174100
 O          5.0041484509        1.0082810809        0.7828255797
 O          3.5168143607        2.7535434804        1.6443446704
 C          2.7915852706        1.5069863510       -0.5859545499
 C          1.6804565705        2.3170675708       -0.7074547795
 C          0.9825578903        2.3210778410       -1.9033150194
 C          1.3944137703        1.5053153114       -2.9447298096
 C          2.5085288704        0.6945751915       -2.8051635000
 C          3.2180604406        0.6942804713       -1.6159863202
 H          4.0934002807        0.0827288614       -1.4722067205
 H          2.8200134404        0.0550322818       -3.6149103303
 H          0.8374928901        1.4970675516       -3.8681965696
 H          0.1135470702        2.9492842809       -2.0187050690
 H          1.3920184405        2.9378170605        0.1270333608
 H          2.0597810012        0.8607155100        2.3929351901
 H          4.4472817713       -1.3254705892        0.7783801291
 H          3.7702695815       -3.4505476890       -0.3108427014
 H          1.4095669716       -4.1013761493       -0.3944838112
 H         -1.1003496183       -2.8126895703        1.7100610895
 C         -1.0850903384       -4.0141171598       -0.0338137108
 C         -2.3866262885       -4.2034062699       -0.7523431407
 C         -1.1074207586       -4.1289442894       -1.5277080609
 H         -0.7300148485       -5.0349985692       -1.9787700412
 H         -0.8999304388       -3.2365073692       -2.0967213306
 H         -2.8840863983       -5.1578736900       -0.6655420409
 H         -3.0634032686       -3.3625203700       -0.7973124104
 H         -0.7162584182       -4.8740848799        0.5167254589
