  62
        -98.94016115
 C          1.7265010920        1.1051863861        0.3910417822
 C          2.0215694226        0.0295684599       -0.4829309878
 C          3.4254178462       -0.0771307633       -0.9088915013
 C          4.3345375236        0.8108260481       -0.4700025926
 C          5.7931522864        0.8446719176       -0.8377975376
 C          6.6704626943       -0.0932272823        0.0026183851
 C          6.5083069308       -1.5830617572       -0.3018790001
 H          6.6222380982       -1.7485746452       -1.3736580642
 H          7.3285576691       -2.1030749487        0.1969388696
 C          5.1796741265       -2.1862623103        0.1754367776
 H          4.7183334456       -1.5195299988        0.9075902408
 H          5.3710460605       -3.1343882051        0.6829811156
 C          4.1725813494       -2.4661110484       -0.9402617207
 H          4.5676474326       -3.2362684514       -1.6066885254
 H          3.2550467004       -2.8510276105       -0.4871754908
 C          3.8028939774       -1.2367058839       -1.7802961040
 H          4.6287906798       -0.9675108441       -2.4386689837
 H          2.9338385641       -1.4901996277       -2.3929819489
 H          6.4616618759        0.0872646324        1.0595879769
 H          7.7113132862        0.1820432246       -0.1822789854
 H          5.9100938516        0.6046674635       -1.8949787041
 H          6.1311169520        1.8702376142       -0.6740586722
 O          4.0132094401        1.8231662853        0.3787002538
 C          2.7186334961        1.9763708856        0.8493756330
 O          2.5800671083        2.9111429026        1.6629345247
 H         -1.9306082727        0.0673663765       -0.0434117039
 C         -1.4614335814       -0.4654688801        0.7653738718
 C         -0.2976371398        0.0221455098        1.3383644366
 C          0.3150457461       -0.7206980989        2.3444552711
 C         -0.2143074396       -1.9297765023        2.7501888757
 C         -1.3761080182       -2.4141194725        2.1757532622
 C         -2.0025015696       -1.6757480023        1.1781693700
 N         -3.2121071552       -2.1195868338        0.6362301371
 S         -3.8663007220       -1.5758930489       -0.7934090290
 O         -5.0268273559       -2.4224667330       -0.9803570893
 O         -2.9199138452       -1.5659686812       -1.8831368881
 C         -4.4043228573        0.0825856674       -0.4288751378
 C         -4.2529897958        1.0592345162       -1.3930233529
 C         -4.6812352337        2.3483441579       -1.1182886881
 C         -5.2555078380        2.6360258521        0.1101982215
 C         -5.4081222164        1.6423377066        1.0651966193
 C         -4.9819164677        0.3514547625        0.7960351722
 H         -5.0822711184       -0.4424683740        1.5169850364
 H         -5.8554625327        1.8704744264        2.0192404930
 H         -5.5846065979        3.6407911664        0.3236396069
 H         -4.5633708548        3.1216594920       -1.8607494021
 H         -3.7923239565        0.7906463886       -2.3309703990
 H         -3.4957178342       -3.0560372013        0.8779264463
 H         -1.7919938233       -3.3585908374        2.4917261877
 H          0.2796880507       -2.5020582182        3.5212297379
 H          1.2240824889       -0.3418527778        2.7926494448
 C          0.3253017276        1.3346813610        0.9315261156
 H          0.4689033135        1.9332253628        1.8467413706
 C         -0.5652092944        2.1579264765        0.0124025239
 C          0.0146089119        3.2028429740       -0.8919742154
 C         -0.5823610450        1.9575473714       -1.4717540189
 H         -1.5283908104        2.0327839468       -1.9872012156
 H          0.0748146139        1.2075790840       -1.8834081222
 H          1.0892168782        3.3129043878       -0.9077119922
 H         -0.5207493316        4.1328991236       -1.0078600902
 H         -1.5142091303        2.4027817497        0.4807285484
 O          1.1746531932       -0.8042083655       -0.8948775512
