  62
        -98.94520536
 C         -2.2482053787        0.7647257111        0.0139637078
 C         -3.2363140522        0.6359319029       -0.9952876170
 C         -4.0714342075       -0.5674316456       -0.9297901206
 C         -3.8385596741       -1.4886653695        0.0226320692
 C         -4.5798723818       -2.7860237381        0.1998167759
 C         -5.8881529406       -2.6558058566        0.9920406473
 C         -7.0349960888       -1.9721990862        0.2463804573
 H         -7.1745851767       -2.4537638603       -0.7218749734
 H         -7.9422783114       -2.1430278791        0.8291916762
 C         -6.8510173728       -0.4608065015        0.0506979174
 H         -6.0818776033       -0.0962312055        0.7354598606
 H         -7.7787510232        0.0552357251        0.3077066417
 C         -6.4816543258       -0.0463624542       -1.3736232730
 H         -6.3413136723        1.0373404514       -1.3894040616
 H         -7.3032766175       -0.2896933449       -2.0507786168
 C         -5.1995569594       -0.6979937317       -1.9082670551
 H         -5.3797895318       -1.7468169505       -2.1428888542
 H         -4.9062544955       -0.1790823285       -2.8239853482
 H         -5.6822495000       -2.1158955751        1.9191845150
 H         -6.2075470512       -3.6656060470        1.2599718252
 H         -3.9100689033       -3.4532674802        0.7468121678
 H         -4.7862082034       -3.2259182751       -0.7763636869
 O         -2.8558163449       -1.3475269451        0.9508924822
 C         -2.0494783055       -0.2181023389        0.9837467505
 O         -1.2192942844       -0.2210082682        1.9141675279
 O         -3.4100344789        1.4872237403       -1.9067953256
 C         -1.3586175709        1.9975837257       -0.0155369132
 C          0.0278889514        1.5580043521       -0.4146239098
 C          0.3235307880        1.3764830213       -1.7630572593
 C          1.5592844849        0.8987935208       -2.1563403076
 C          2.5222860631        0.5801476426       -1.2141265230
 C          2.2303410273        0.7412004253        0.1329428022
 C          0.9978050027        1.2464747914        0.5251241401
 H          0.7809364224        1.3534369116        1.5761177753
 N          3.1949791258        0.4009739823        1.0986376121
 S          3.9309632020       -1.1033288408        0.9647231000
 O          3.0848150919       -2.0605665262        0.2900275746
 O          4.3483897406       -1.4438233829        2.3078542947
 C          5.3804572479       -0.7708824773       -0.0173804857
 C          6.2272521980        0.2412972716        0.3906975565
 C          7.3641052818        0.5045424375       -0.3565369309
 C          7.6359467206       -0.2464146525       -1.4905823924
 C          6.7780598519       -1.2614809907       -1.8850909295
 C          5.6382097873       -1.5290153796       -1.1426142276
 H          4.9387736907       -2.3038363084       -1.4140742822
 H          6.9903982734       -1.8446670484       -2.7667458034
 H          8.5214350122       -0.0393226029       -2.0705168963
 H          8.0333494206        1.2934084398       -0.0531900706
 H          5.9812728352        0.7991051944        1.2786567176
 H          2.8732817373        0.5465912395        2.0454170856
 H          3.4831410428        0.1929455304       -1.5117403198
 H          1.7753658270        0.7675010512       -3.2057378843
 H         -0.4372567017        1.6002232520       -2.4978233199
 H         -1.7626819648        2.6260986485       -0.8204160601
 C         -1.4084603092        2.7755962361        1.2823934412
 C         -0.8684273835        4.1731647990        1.3191263019
 C         -2.3457742241        3.9379968494        1.4039975920
 H         -2.8420248103        4.1014250527        2.3489578613
 H         -2.9529557238        4.1822499314        0.5447931921
 H         -0.3480962329        4.5021791741        2.2055682832
 H         -0.4710833996        4.5757644970        0.3998829054
 H         -1.2760319646        2.1567135322        2.1614663606
