  62
        -98.93519421
 C         -2.0993248232       -1.0167174528        0.5706476834
 C         -2.3725523715       -0.2666270784       -0.5947863560
 C         -2.7352746050        1.1495084238       -0.3979381543
 C         -2.7348616726        1.6574576488        0.8475275970
 C         -3.0698273498        3.0576100741        1.2973862516
 C         -2.4832805369        4.2081657849        0.4649220798
 C         -3.5327757824        4.9656030967       -0.3510077514
 H         -4.4343738453        5.0686424011        0.2563048567
 H         -3.1580316246        5.9716048172       -0.5519490544
 C         -3.8973807153        4.3320778081       -1.6924021486
 H         -3.0645248783        4.4549168308       -2.3879442416
 H         -4.7464688573        4.8862384679       -2.0992201265
 C         -4.2621577523        2.8474493095       -1.6366298557
 H         -4.8763232480        2.6370317331       -0.7618804773
 H         -4.8690411864        2.6192744604       -2.5152870808
 C         -3.0423787721        1.9137728935       -1.6568846407
 H         -3.1814817316        1.1411288727       -2.4196487279
 H         -2.1482972379        2.4697255381       -1.9540414743
 H         -1.6930872172        3.8291779492       -0.1818095738
 H         -2.0198636668        4.9142709592        1.1560843758
 H         -4.1575039612        3.1535115733        1.3488123233
 H         -2.7024279988        3.1185327311        2.3244224915
 O         -2.4361176681        0.8996294101        1.9434196379
 C         -2.1104404431       -0.4390672580        1.8374171825
 O         -1.8596147116       -0.9988023595        2.9262063347
 H          0.4256359933       -0.8860054516        0.4191194201
 C          0.5368739827       -1.7066068833       -0.2760467231
 C         -0.4865805603       -2.6367545013       -0.4068381883
 C         -0.3177590371       -3.6882024930       -1.2987685433
 C          0.8437994554       -3.7928338556       -2.0445267104
 C          1.8576597900       -2.8628541974       -1.9140396400
 C          1.6974280704       -1.8044810344       -1.0249154680
 N          2.6916086454       -0.8197739332       -0.9058386407
 S          2.8040958500        0.1068464624        0.4944364053
 O          2.8204661972       -0.7454248349        1.6633056294
 O          1.7924941391        1.1343262324        0.4584689883
 C          4.4142398687        0.8337417904        0.2504890097
 C          4.5241241046        1.9696954171       -0.5288998362
 C          5.7799065980        2.5139755664       -0.7470288607
 C          6.8990337936        1.9162612372       -0.1866121219
 C          6.7732831902        0.7779598547        0.5954836015
 C          5.5203177401        0.2282429930        0.8168286136
 H          5.3722347796       -0.6490230735        1.4258394296
 H          7.6442797302        0.3175363415        1.0330783373
 H          7.8749114300        2.3422644175       -0.3577651955
 H          5.8806078405        3.4007460884       -1.3517147739
 H          3.6249842844        2.4027449285       -0.9355074739
 H          3.5957769078       -1.1178246350       -1.2442907193
 H          2.7606915779       -2.9437267109       -2.4992529683
 H          0.9614158715       -4.6132295540       -2.7361039010
 H         -1.0969940458       -4.4239824591       -1.4118383569
 C         -1.7157828199       -2.4793193664        0.4567126939
 H         -1.4535814612       -2.8035769407        1.4758794268
 C         -2.8984941829       -3.2944708849       -0.0267194911
 C         -3.0863559608       -4.7078925276        0.4338193636
 C         -3.9885622400       -3.6268960503        0.9459328491
 H         -5.0119957528       -3.5996646692        0.6034971419
 H         -3.8595376208       -3.2889212670        1.9643371187
 H         -3.4954616632       -5.4265304417       -0.2602304587
 H         -2.3514156851       -5.1146715632        1.1120917936
 H         -3.1902825233       -3.0385399554       -1.0387380890
 O         -2.3256628361       -0.7564977664       -1.7545201695
