  62
        -98.94478836
 C          1.9339233777        0.4486741830       -0.6401230555
 C          2.9810365717        1.2855448469       -0.1850850453
 C          4.3350173313        0.7226799821       -0.2652423667
 C          4.5028878671       -0.5160960310       -0.7634287732
 C          5.8191910014       -1.2315527260       -0.8527761115
 C          6.0857361614       -2.0646586923        0.4087794652
 C          5.8784309110       -1.2943523976        1.7128131383
 H          4.8203381082       -1.0414853673        1.8119316181
 H          6.1247672112       -1.9720053786        2.5331060323
 C          6.7191105328       -0.0157715818        1.8353154344
 H          7.1570667422        0.0208361977        2.8350205443
 H          7.5433714267       -0.0447985573        1.1218196824
 C          5.9312083225        1.2818275522        1.6464415367
 H          6.5646741174        2.1135914960        1.9658197212
 H          5.0512996273        1.2734800657        2.2945450447
 C          5.4718393076        1.5813231394        0.2138664161
 H          6.3219414807        1.5104070931       -0.4676192837
 H          5.0993789420        2.6096722726        0.1929307187
 H          7.1097408561       -2.4400046764        0.3642809591
 H          5.4087888876       -2.9221663066        0.4063980851
 H          5.7905756650       -1.8968615040       -1.7173524773
 H          6.6145474812       -0.5022960118       -0.9941038641
 O          3.4742283890       -1.2848328527       -1.2038379798
 C          2.1641412106       -0.8301646548       -1.1469279684
 O          1.3211013610       -1.6423446489       -1.5720371448
 O          2.7907998243        2.4456122176        0.2693997035
 C          0.5073588184        0.9668520055       -0.5809157821
 C         -0.3310997978        0.0496930722        0.2734869449
 C          0.0785202030       -0.1953778116        1.5828580871
 C         -0.6320149491       -1.0532608869        2.3979830587
 C         -1.7760128665       -1.6769095740        1.9298008804
 C         -2.1981855967       -1.4350448234        0.6290366945
 C         -1.4802476903       -0.5705884379       -0.1885710116
 H         -1.8228400117       -0.4186141580       -1.1976962349
 N         -3.3469088935       -2.0668754160        0.1255837231
 S         -4.4884949538       -1.1960382258       -0.7291796726
 O         -5.6566719577       -2.0484866182       -0.7444472307
 O         -3.9688072013       -0.8032699964       -2.0132821611
 C         -4.7957283915        0.2365809274        0.2871722655
 C         -5.6573331591        0.1046737751        1.3590725535
 C         -5.8533426731        1.1880867887        2.1995247720
 C         -5.1799061650        2.3766560732        1.9605760756
 C         -4.3184742657        2.4924876186        0.8807816957
 C         -4.1215526567        1.4134658423        0.0331709434
 H         -3.4637794289        1.4673024855       -0.8183170909
 H         -3.7968164272        3.4179072064        0.6952666008
 H         -5.3286163123        3.2189264148        2.6177111395
 H         -6.5263951770        1.1029382805        3.0374000358
 H         -6.1682676649       -0.8335918586        1.5029483760
 H         -3.7937359501       -2.6961475367        0.7763931173
 H         -2.3291458488       -2.3551630032        2.5616139942
 H         -0.2963729724       -1.2387019059        3.4071429855
 H          0.9735697929        0.2907155946        1.9466765231
 H          0.5752272639        1.9425051451       -0.0772648340
 C         -0.0378217020        1.1789272677       -1.9766207528
 C         -1.0811285264        2.2252079120       -2.2258410715
 C          0.3202625833        2.4325238726       -2.7149355318
 H          0.5152328111        2.3680185846       -3.7749133233
 H          0.9402117644        3.1515352307       -2.1995150082
 H         -1.8562174889        2.0177091882       -2.9490985226
 H         -1.4055289673        2.8145970892       -1.3813061190
 H         -0.0859848030        0.2620502966       -2.5539999673
