  62
        -98.93738320
 C          2.6890092004        0.2002459103       -0.4967473598
 C          2.2495077801        0.7245971699        0.7432837403
 C          1.6497357401        2.0654641899        0.7012047106
 C          1.5464857903        2.7031556603       -0.4786463692
 C          0.8407053203        4.0097039703       -0.7032485589
 C         -0.6825677497        3.7684426203       -0.7484935392
 C         -1.4588751899        4.4230137998        0.3942824909
 H         -1.5300290300        5.4973680999        0.2090903612
 H         -2.4707346299        4.0127783998        0.3742086805
 C         -0.8731482102        4.2252092894        1.7956087009
 H         -0.0556027702        4.9306760494        1.9542150413
 H         -1.6564800703        4.4892454391        2.5093751009
 C         -0.3695461302        2.8124183793        2.1208167105
 H         -0.6377632304        2.5821228089        3.1545241204
 H         -0.8639306900        2.0652427595        1.4972079102
 C          1.1568538698        2.6375654594        2.0003523207
 H          1.4863952397        1.9267150892        2.7639708505
 H          1.6545054498        3.5917538394        2.1966143411
 H         -1.0814989296        4.1433609506       -1.6927781192
 H         -0.8618326797        2.6907641003       -0.7341911096
 H          1.1910126704        4.4123793707       -1.6540864787
 H          1.0959226601        4.7093067001        0.0895156814
 O          2.0048830005        2.1778730907       -1.6451259293
 C          2.5487968206        0.9052558407       -1.6898372796
 O          2.8639831208        0.5184896011       -2.8354618497
 O          2.3478298100        0.0988921095        1.8319310201
 C          3.1837754205       -1.2357568696       -0.5738512802
 C          2.0572734604       -2.1182630598       -0.0906821607
 C          2.1828170303       -3.0866007002        0.8956223790
 C          1.0668450002       -3.7606756904        1.3644539985
 C         -0.1942441697       -3.4797354803        0.8697048884
 C         -0.3211582096       -2.5412251199       -0.1428396813
 C          0.7962270905       -1.8862280597       -0.6266031509
 H          0.6798441206       -1.1358938395       -1.4006363806
 N         -1.6223528795       -2.1878716298       -0.6168408214
 S         -2.1430824997       -0.7883643601        0.1897562090
 O         -1.5020579096        0.3834218201       -0.3712372305
 O         -1.9816213999       -1.0039780906        1.6040965489
 C         -3.8777205496       -0.7829672100       -0.2235745213
 C         -4.6716793597       -1.7788307103        0.3120987682
 C         -6.0160764596       -1.8147828202       -0.0200296721
 C         -6.5412275095       -0.8596460999       -0.8782906818
 C         -5.7319072495        0.1335440303       -1.4076052113
 C         -4.3850368695        0.1733239302       -1.0806051311
 H         -3.7181315095        0.9273687704       -1.4677442807
 H         -6.1418840894        0.8756046505       -2.0736945812
 H         -7.5880912295       -0.8891097599       -1.1360388620
 H         -6.6490143197       -2.5855214104        0.3892143676
 H         -4.2190311698       -2.4942130205        0.9781112480
 H         -1.5929546393       -1.9536810295       -1.6023504413
 H         -1.0747289298       -3.9612345004        1.2618225481
 H          1.1801552301       -4.4967963106        2.1457495783
 H          3.1520705102       -3.2937875503        1.3193736591
 H          3.3614520007       -1.4427372293       -1.6392467703
 C          4.4781832403       -1.4184715998        0.1866935999
 C          5.4266408604       -2.5122728197       -0.2005140603
 C          5.7700947404       -1.0836598896       -0.4940013797
 H          6.5482381803       -0.6086587897        0.0840531106
 H          5.7160351306       -0.7414534392       -1.5173930496
 H          5.9745960703       -3.0194306799        0.5789652297
 H          5.1470503506       -3.1457185194       -1.0286728805
 H          4.3832694601       -1.1648210702        1.2359283000
