  62
        -98.95138571
 C         -1.8215200958       -1.2563586442       -0.2884614064
 C         -2.9120580230       -0.5734794908        0.2972127281
 C         -3.2273796011        0.7375305818       -0.2785727642
 C         -2.5017065672        1.2058832569       -1.3105066862
 C         -2.6864893629        2.5346526795       -1.9906468675
 C         -1.9735891261        3.6861393594       -1.2678095326
 C         -2.6494013880        4.1571911047        0.0206614122
 H         -2.1933952827        5.1119700884        0.2903847080
 H         -3.7083624084        4.3408143070       -0.1671790526
 C         -2.4907002064        3.1894687441        1.2017522120
 H         -1.6614881364        2.5061679945        0.9996942317
 H         -2.2185435216        3.7528042553        2.0981614885
 C         -3.7464920453        2.3842271768        1.5387652326
 H         -4.5307977225        3.0607634186        1.8871762466
 H         -3.5031148309        1.7012127483        2.3569847601
 C         -4.3023280036        1.5518534447        0.3760330620
 H         -5.0463861141        0.8590558177        0.7776980641
 H         -4.7859096952        2.2012254723       -0.3533836540
 H         -0.9503415799        3.3746112087       -1.0409761944
 H         -1.9242903557        4.5302508782       -1.9600534835
 H         -2.2582746711        2.4363769618       -2.9904758816
 H         -3.7489733978        2.7608460735       -2.0859205286
 O         -1.4929762452        0.4967005469       -1.8783348204
 C         -1.0949297555       -0.7191147733       -1.3502509946
 O         -0.1063742675       -1.2270948879       -1.9163629812
 H         -0.2271684362       -0.4234897618        1.4597294249
 C          0.4904332251       -1.2191902963        1.3218290039
 C          0.0908683821       -2.4225047881        0.7542636643
 C          1.0379923670       -3.4286488256        0.6089057424
 C          2.3517454434       -3.2185198730        0.9928126903
 C          2.7555729025       -1.9970667130        1.5004511695
 C          1.8126366351       -0.9887755404        1.6596947210
 N          2.1643226272        0.2957681576        2.1305784818
 S          2.0298688124        1.5336132170        1.0023684663
 O          2.5091614877        2.7181192109        1.6829002893
 O          0.6865476201        1.5926794142        0.4908569223
 C          3.1940145468        1.0719199262       -0.2679291783
 C          2.8273740574        0.1505895612       -1.2281190039
 C          3.7796565810       -0.2631041036       -2.1482799457
 C          5.0689381350        0.2423596223       -2.0918513331
 C          5.4195256514        1.1682392556       -1.1202586912
 C          4.4762651143        1.5832555646       -0.1950477304
 H          4.7001742365        2.3025372640        0.5763845699
 H          6.4218601411        1.5631597216       -1.0790982092
 H          5.8032013623       -0.0866881845       -2.8102096187
 H          3.4982912274       -0.9824964747       -2.9005524989
 H          1.8170389024       -0.2282794834       -1.2615104662
 H          3.0858663026        0.3359583735        2.5456180684
 H          3.7868690566       -1.8211869993        1.7674052900
 H          3.0756155375       -4.0098637839        0.8725288725
 H          0.7485385880       -4.3768067046        0.1858623044
 C         -1.3483468991       -2.5634175584        0.3203323858
 H         -1.9713213698       -2.7152168732        1.2149365435
 C         -1.5755811793       -3.7170753527       -0.6345947874
 C         -1.8733061687       -5.0897338028       -0.1109854137
 C         -2.9557942332       -4.2857686182       -0.7640752782
 H         -3.3024468247       -4.5806141299       -1.7430714953
 H         -3.7262363863       -3.8576442717       -0.1394265855
 H         -1.4790862806       -5.9417127645       -0.6441436243
 H         -1.9169369031       -5.2185957968        0.9599469808
 H         -0.9837638856       -3.6281458065       -1.5387320082
 O         -3.5814179304       -1.0339698794        1.2628352329
