  62
        -98.94478091
 C         -1.8465987922       -0.7372726458        0.4081075707
 C         -2.4608862907       -0.1515306386       -0.7254228967
 C         -3.5213122751        0.8238654186       -0.4393262788
 C         -3.8135960895        1.1431577292        0.8344378371
 C         -4.8486296461        2.1386858050        1.2836520976
 C         -6.2720123073        1.5693469692        1.3581987804
 C         -6.9420630402        1.3132879892        0.0077028359
 H         -7.9993365808        1.1260997625        0.2056907386
 H         -6.8802791323        2.2141351802       -0.6036950901
 C         -6.3666536441        0.1207138000       -0.7689377828
 H         -7.1850323013       -0.4908021190       -1.1554439802
 H         -5.7881444381       -0.5107121529       -0.0907254332
 C         -5.4867681388        0.5039752332       -1.9589416128
 H         -5.1045920068       -0.4139772243       -2.4125223871
 H         -6.0886169331        1.0239231333       -2.7075903176
 C         -4.2862220365        1.3886410098       -1.5978738311
 H         -3.6108828934        1.4199183697       -2.4566095992
 H         -4.6187264972        2.4030807290       -1.3780367531
 H         -6.8811217742        2.2880145603        1.9113676714
 H         -6.2474024399        0.6416848438        1.9346154225
 H         -4.5547581785        2.4625398894        2.2845871597
 H         -4.8358670277        3.0049075320        0.6213372287
 O         -3.1606198076        0.5963174886        1.8950680858
 C         -2.1772802958       -0.3629944900        1.7097455855
 O         -1.6685309063       -0.7884183040        2.7678038379
 H          0.4223112091        0.5349914025        0.7549794393
 C          0.8983727253        0.0467555658       -0.0869969994
 C          0.4102929757       -1.1809234010       -0.5188638186
 C          1.0409535585       -1.8040443990       -1.5870895655
 C          2.1089407098       -1.1940958809       -2.2237866193
 C          2.5768252557        0.0374599414       -1.8058929173
 C          1.9659654914        0.6596374410       -0.7236745954
 N          2.4462531421        1.9014579406       -0.2752041838
 S          4.1021337176        2.0978745339       -0.1377677874
 O          4.2811727598        3.0900516203        0.8992081711
 O          4.6599633112        2.4287954145       -1.4254239634
 C          4.7223682229        0.5121176386        0.3962800310
 C          4.2377538026       -0.0125385313        1.5781605226
 C          4.6847881079       -1.2565461858        1.9922480271
 C          5.6048733666       -1.9511465233        1.2216169951
 C          6.0864907062       -1.4081979259        0.0408272952
 C          5.6407785426       -0.1652137595       -0.3795605399
 H          5.9851273615        0.2924987055       -1.2925526594
 H          6.8032820916       -1.9497029881       -0.5550019609
 H          5.9473772064       -2.9211313412        1.5456556930
 H          4.3098858607       -1.6795081982        2.9105564666
 H          3.5250817470        0.5523682975        2.1580691345
 H          1.9635886808        2.2617401792        0.5342839777
 H          3.3949097506        0.5328562189       -2.3030879496
 H          2.5814191929       -1.6840810113       -3.0611505711
 H          0.6904462432       -2.7632898096       -1.9298702960
 C         -0.7584921969       -1.7802076884        0.2262015830
 H         -0.4155514212       -2.0395951117        1.2386310695
 C         -1.3254466115       -3.0219749695       -0.4292204836
 C         -0.7201373169       -4.3644749462       -0.1530459262
 C         -2.0600145010       -4.0145274222        0.4192896269
 H         -2.9386880383       -4.4916989369        0.0117989831
 H         -2.1285064964       -3.8075324023        1.4777243439
 H         -0.6805578083       -5.0871916942       -0.9539541028
 H          0.1222990783       -4.4042518471        0.5205888104
 H         -1.7153276643       -2.8274612748       -1.4215513461
 O         -2.1422207228       -0.4230997134       -1.9113325042
