  62
        -98.93921806
 C         -1.5011664141       -1.3535556121        0.2593434736
 C         -2.1132533190       -0.3839941888        1.0947520552
 C         -3.1929982300        0.4022541458        0.4893638862
 C         -3.5392750647        0.1831054383       -0.7917019853
 C         -4.6274476268        0.8959339098       -1.5477070284
 C         -4.1871945591        2.2361307224       -2.1533272890
 C         -3.9757948021        3.3689423069       -1.1475050792
 H         -3.8840158783        4.2930519919       -1.7217957663
 H         -4.8612880132        3.4641614414       -0.5183691128
 C         -2.7290612563        3.2103268522       -0.2652856781
 H         -2.0580691908        2.4741052797       -0.7150259542
 H         -2.1858387939        4.1574224494       -0.2302322381
 C         -3.0219925222        2.7990696157        1.1779156254
 H         -3.5762169607        3.5949919150        1.6798529626
 H         -2.0694422260        2.6683213102        1.6972848055
 C         -3.8127748844        1.4912215692        1.3116584274
 H         -3.7827568198        1.1778144792        2.3578373729
 H         -4.8515543625        1.6459683169        1.0215274014
 H         -3.2679115982        2.0771209990       -2.7224531340
 H         -4.9627178400        2.5454144366       -2.8578647873
 H         -4.9276901814        0.2330375369       -2.3621391963
 H         -5.4858334359        1.0543840245       -0.8942899324
 O         -2.9208182324       -0.7473402648       -1.5657238598
 C         -1.8647851888       -1.5113849649       -1.0787826015
 O         -1.3563767236       -2.2643560177       -1.9297799155
 H          0.5507599166        0.0427817291       -0.3715414257
 C          1.2050686738       -0.8000690282       -0.5623774089
 C          0.8742782048       -2.0436891727       -0.0371559007
 C          1.7262973117       -3.1094961605       -0.2967797756
 C          2.8744400376       -2.9296132753       -1.0506020070
 C          3.2016426340       -1.6869826488       -1.5619521883
 C          2.3477438225       -0.6202230385       -1.3238673785
 N          2.6979404854        0.6676729701       -1.8111567902
 S          3.7423840099        1.4791087679       -0.7775997896
 O          3.8579332236        2.8240158428       -1.2937030112
 O          4.9612876847        0.7193767942       -0.6787935453
 C          2.8828424899        1.4850382967        0.7847963264
 C          1.9977251134        2.5103332422        1.0527893237
 C          1.2224448389        2.4443172995        2.1991558787
 C          1.3307870584        1.3506854080        3.0443109901
 C          2.2259106402        0.3305780294        2.7616699151
 C          3.0094592842        0.3931403163        1.6203730556
 H          3.7125132355       -0.3828714390        1.3636375893
 H          2.3045219753       -0.5200933130        3.4194755875
 H          0.7039487693        1.2863818503        3.9194241943
 H          0.5263798498        3.2370110429        2.4239383377
 H          1.9365928864        3.3391826484        0.3650154656
 H          1.8916001417        1.2562964907       -1.9707275071
 H          4.1014351719       -1.5235626254       -2.1318948665
 H          3.5246905293       -3.7699982331       -1.2399287120
 H          1.4906724325       -4.0889420418        0.0855734905
 C         -0.3449619775       -2.1394760764        0.8461765537
 H         -0.1063948391       -1.5952788888        1.7772927863
 C         -0.6867693005       -3.5638920885        1.2605132519
 C         -2.1078921708       -4.0140264819        1.4166593642
 C         -1.2693349282       -4.5562620504        0.3003497405
 H         -0.9398267663       -5.5833942034        0.3595538835
 H         -1.4693265655       -4.2158548172       -0.7032267417
 H         -2.3512994481       -4.6634631699        2.2443214436
 H         -2.8894856849       -3.3099733323        1.1695459048
 H          0.0134222459       -3.9544870083        1.9922419815
 O         -1.7625058989       -0.1785514963        2.2855784584
