  62
        -98.94492380
 C          1.9304133665       -0.1710057396       -0.0824247896
 C          2.9552722710       -0.9994708411       -0.5997983788
 C          4.2644450765       -0.3621395932       -0.7762784044
 C          4.4170525675        0.9411511572       -0.4785720040
 C          5.6834109489        1.7399069184       -0.6289628548
 C          6.6488785989        1.6086501056        0.5570068237
 C          7.3752604987        0.2668734291        0.6597965507
 H          7.8478904242        0.0370238699       -0.2956286184
 H          8.1720295210        0.3898161493        1.3961027279
 C          6.4823150190       -0.9051865298        1.0904594222
 H          6.9902877240       -1.4847750987        1.8646216616
 H          5.5617971642       -0.5181428628        1.5336647815
 C          6.1199807380       -1.8733549687       -0.0356982903
 H          5.4569974476       -2.6402718267        0.3726796253
 H          7.0236913264       -2.3679121777       -0.3985729939
 C          5.4094357018       -1.2180897700       -1.2272824877
 H          6.1178533062       -0.6307497769       -1.8108814179
 H          5.0028777292       -2.0095163694       -1.8615884236
 H          7.3986922876        2.3966251185        0.4552182519
 H          6.0949470331        1.7950731801        1.4800182297
 H          6.1931784652        1.4499686954       -1.5481509232
 H          5.3819184819        2.7862277813       -0.7132604711
 O          3.3987017452        1.7107934724       -0.0098457745
 C          2.1386845520        1.1746138452        0.2193864643
 O          1.3133892934        1.9872014786        0.6776980899
 H         -1.7154189792        0.5994214682        0.9828344735
 C         -1.5626476413        0.6143990061       -0.0825917674
 C         -0.4726876869       -0.0216703619       -0.6535889959
 C         -0.3078328464        0.0474843545       -2.0357512690
 C         -1.2011975847        0.7489868711       -2.8200662975
 C         -2.2866764726        1.3876654444       -2.2449540854
 C         -2.4638896865        1.3219586024       -0.8689241842
 N         -3.5457586087        1.9785188215       -0.2610253658
 S         -4.4591667085        1.2267959535        0.9181978325
 O         -5.6419902048        2.0503670790        1.0370472357
 O         -3.6857565529        1.0433741609        2.1188917015
 C         -4.8905258255       -0.3498950409        0.2052326990
 C         -5.9785368805       -0.4082399484       -0.6442522323
 C         -6.2880061330       -1.6113988399       -1.2568353842
 C         -5.5015231930       -2.7285244756       -1.0186983213
 C         -4.4127563611       -2.6531616613       -0.1640445394
 C         -4.1006642130       -1.4533920098        0.4561532240
 H         -3.2656920677       -1.3590106416        1.1302658031
 H         -3.8032561248       -3.5230790281        0.0220728618
 H         -5.7395616264       -3.6644885792       -1.4989764852
 H         -7.1373282841       -1.6745679941       -1.9178652681
 H         -6.5687632949        0.4813589592       -0.7934946710
 H         -4.1389619348        2.4845791073       -0.9021308264
 H         -2.9822997927        1.9440623404       -2.8546236761
 H         -1.0553071014        0.7991614594       -3.8885465052
 H          0.5424405024       -0.4490454132       -2.4831370787
 C          0.5559418856       -0.7725750237        0.1536174272
 H          0.6196941120       -1.7985341504       -0.2382465247
 C          0.2533351114       -0.8373238946        1.6351014619
 C         -0.6585449993       -1.8991291859        2.1702007633
 C          0.8136978300       -1.9685366528        2.4420852008
 H          1.1671179168       -1.7630150279        3.4414126810
 H          1.3959208774       -2.7115839113        1.9167568468
 H         -1.3226059861       -1.6457619403        2.9836519611
 H         -1.0681710915       -2.6049597982        1.4632003711
 H          0.2297110214        0.1402123926        2.1044173116
 O          2.7815157246       -2.2095568464       -0.9049402352
