  62
        -98.94313930
 C         -2.5832453458       -0.0753657709        0.3647656194
 C         -2.6817593237       -1.0901505837       -0.6229261537
 C         -2.1077923750       -2.3941184384       -0.2842707949
 C         -1.5332906236       -2.5713104465        0.9185639308
 C         -0.8607587592       -3.8263833490        1.4039569960
 C          0.5925671570       -3.9545881437        0.9260929556
 C          0.7601237870       -4.3439068988       -0.5437340384
 H          1.8000433836       -4.6493337348       -0.6756690444
 H          0.1344202965       -5.2098392351       -0.7643868274
 C          0.4518261569       -3.2131793614       -1.5352381383
 H          0.4850480316       -2.2531146596       -1.0142532388
 H          1.2284145247       -3.1852668454       -2.3038802143
 C         -0.8873906145       -3.3465185160       -2.2610361956
 H         -1.0232868140       -2.4614460486       -2.8878787830
 H         -0.8651829741       -4.2235913337       -2.9127597394
 C         -2.1064508117       -3.4608423930       -1.3377350306
 H         -2.1379984364       -4.4474638380       -0.8756622740
 H         -3.0064556579       -3.3274735200       -1.9435684161
 H          1.1006678681       -3.0035094701        1.1082300534
 H          1.0742204232       -4.7178248420        1.5423656325
 H         -1.4319077178       -4.7003962548        1.0888128489
 H         -0.8647004537       -3.7805645011        2.4952018884
 O         -1.5126918558       -1.5979082593        1.8640767011
 C         -1.9896658389       -0.3195985181        1.6037998873
 O         -1.8433373743        0.4628801853        2.5652678514
 O         -3.2288760892       -0.9068593828       -1.7446967020
 C         -3.0243502778        1.3122018275       -0.0715947436
 C         -1.8599459679        1.9678368011       -0.7803232306
 C         -2.0044756986        2.5438907022       -2.0364536501
 C         -0.9057428594        3.0534958347       -2.7064664663
 C          0.3594624882        2.9625629775       -2.1553862694
 C          0.5115452719        2.3958652995       -0.8944216478
 C         -0.5995637246        1.9419671022       -0.2015662380
 H         -0.4614031378        1.5198282002        0.7826258966
 N          1.7754636194        2.2553341482       -0.3012977439
 S          2.0529911225        0.8451118521        0.5972428989
 O          1.3137432352       -0.2603616573        0.0357996682
 O          1.8322612800        1.1420604148        1.9905100219
 C          3.8000549758        0.6141136541        0.3175906611
 C          4.2203922272       -0.3309069709       -0.5985213080
 C          5.5790350884       -0.4846033169       -0.8275747901
 C          6.4882977368        0.3077619137       -0.1433152497
 C          6.0511309521        1.2524195379        0.7737661644
 C          4.6945995822        1.4096781035        1.0091225737
 H          4.3075001368        2.1209538464        1.7201602124
 H          6.7609434797        1.8645081460        1.3063164088
 H          7.5446713491        0.1861112136       -0.3232791171
 H          5.9211393192       -1.2209277448       -1.5367454548
 H          3.4754613978       -0.9272959420       -1.1009321818
 H          2.5376636685        2.4596269208       -0.9330858028
 H          1.2230328245        3.3200698554       -2.6953141411
 H         -1.0312886109        3.4972968674       -3.6823688440
 H         -2.9800591886        2.5655964883       -2.4987534095
 H         -3.8183696006        1.1529207331       -0.8150801432
 C         -3.5655993632        2.2038806715        1.0248758603
 C         -4.5046614135        3.3140630068        0.6615539435
 C         -5.0131852218        2.1130499253        1.3996367331
 H         -5.2792610756        2.2147336209        2.4407010575
 H         -5.6233556765        1.4028991601        0.8607684882
 H         -4.4233517932        4.2487179381        1.1945426569
 H         -4.7773597860        3.4210001799       -0.3772626294
 H         -2.8565573402        2.3828948533        1.8226000607
