  62
        -98.94520394
 C         -1.5003491701       -0.6678423115       -0.5292059189
 C         -2.6899688799       -1.0928278602        0.1189909423
 C         -3.5468367901       -0.0412606790        0.6789155599
 C         -3.1542837304        1.2417309408        0.5827029867
 C         -3.9448156906        2.4209831518        1.0697318439
 C         -4.8623754408        2.9698697590       -0.0319037273
 C         -5.6982701307        1.8971204071       -0.7301544546
 H         -6.3275922209        2.4030377952       -1.4654685457
 H         -5.0317784406        1.2298496559       -1.2812306731
 C         -6.5799843804        1.0659363792        0.2122241375
 H         -6.6966811804        1.5849260915        1.1642834763
 H         -7.5740088404        0.9722463479       -0.2300929821
 C         -6.0713279201       -0.3538361400        0.4689906109
 H         -5.8630401401       -0.8462705323       -0.4841076879
 H         -6.8689283599       -0.9168388190        0.9609457423
 C         -4.8217985599       -0.4663488877        1.3517837210
 H         -4.9729587499        0.0928877546        2.2776111697
 H         -4.6878910397       -1.5218054570        1.6064875236
 H         -5.5223213909        3.7185465999        0.4102145710
 H         -4.2423365110        3.4643076773       -0.7832043585
 H         -4.5348436904        2.1227416238        1.9343955047
 H         -3.2442546707        3.2014022627        1.3724336120
 O         -2.0010988805        1.6131273496       -0.0236845143
 C         -1.1461113604        0.6799563284       -0.5955735022
 O         -0.1456574206        1.1950276273       -1.1297475335
 O         -3.0242746797       -2.3046614600        0.2155354853
 C         -0.6153250699       -1.7677731827       -1.0949394863
 C          0.4061705503       -2.1734431800       -0.0578290854
 C          0.3251303506       -3.4173568785        0.5568702576
 C          1.2349847508       -3.7783665660        1.5343145283
 C          2.2329284506       -2.9031216348        1.9191710361
 C          2.3237815303       -1.6543562063        1.3106105731
 C          1.4216114701       -1.3032070189        0.3170163123
 H          1.4806973399       -0.3278585899       -0.1358032500
 N          3.3432269602       -0.7704202252        1.6801365608
 S          3.1906912498        0.8958416346        1.6068536768
 O          4.1338482898        1.3688950072        2.6013270756
 O          1.8226945597        1.3208078848        1.7814457560
 C          3.8329846995        1.2984719209       -0.0038591942
 C          5.1872560796        1.1016611307       -0.2005371939
 C          5.7363477794        1.3907645078       -1.4380545447
 C          4.9253531391        1.8712217252       -2.4559131657
 C          3.5705361491        2.0660317554       -2.2409720360
 C          3.0129978193        1.7796583083       -1.0029460253
 H          1.9579591993        1.9111150085       -0.8171509555
 H          2.9345709790        2.4372848934       -3.0290035169
 H          5.3505021090        2.0962018129       -3.4214583263
 H          6.7906137394        1.2413201976       -1.6067139744
 H          5.7819391097        0.7387503028        0.6211650969
 H          3.8990479403       -1.0639864331        2.4693497915
 H          2.9367522508       -3.1770529428        2.6904472567
 H          1.1604913810       -4.7455818348        2.0079367307
 H         -0.4722738493       -4.0911453993        0.2798653993
 H         -1.2867889898       -2.6243895832       -1.2464645342
 C          0.0385399698       -1.4343356058       -2.4195844972
 C          0.5235888400       -2.5560602578       -3.2868115445
 C         -0.6787283802       -1.7594504390       -3.6940053463
 H         -0.5907384505       -1.0730882010       -4.5225740680
 H         -1.6500900801       -2.2262027990       -3.6166641051
 H          1.4417181199       -2.4193541489       -3.8367755950
 H          0.3668225202       -3.5643203669       -2.9344142921
 H          0.6232922396       -0.5248984056       -2.4002544995
