  62
        -98.94490897
 C         -1.8735161546       -1.0754990470       -0.1965544916
 C         -3.0177919313       -1.1578923694        0.6422452453
 C         -4.2470705523       -0.5428313563        0.1334992077
 C         -4.2474124315        0.0358071768       -1.0806759396
 C         -5.4268348350        0.6806058692       -1.7563913998
 C         -5.6713149772        2.1357932850       -1.3340984003
 C         -6.2337763912        2.3180676712        0.0762044405
 H         -6.5607401393        3.3565251985        0.1587450333
 H         -7.1159176888        1.6888221581        0.1985076810
 C         -5.2302403718        2.0261676083        1.2007281733
 H         -4.2156939659        2.0310832915        0.7949589103
 H         -5.2779735058        2.8223224940        1.9471576380
 C         -5.4641082347        0.7044846874        1.9326828929
 H         -4.6746590490        0.5829048273        2.6787576850
 H         -6.4211948864        0.7410480018        2.4576801172
 C         -5.4524822652       -0.5316257103        1.0239445548
 H         -6.3650890129       -0.5701978720        0.4294713140
 H         -5.4073576638       -1.4217049750        1.6561748654
 H         -4.7339016628        2.6893755951       -1.4266203289
 H         -6.3819363451        2.5656850779       -2.0438686282
 H         -6.3241882866        0.0906070746       -1.5675495165
 H         -5.2186347779        0.6638640440       -2.8284121194
 O         -3.1392014917        0.0794980425       -1.8633229902
 C         -1.9264717534       -0.4478256328       -1.4409045463
 O         -1.0082775039       -0.2887285069       -2.2718542920
 O         -3.0109753939       -1.7316208769        1.7632899523
 C         -0.5985166372       -1.7069337839        0.3373458489
 C          0.3406491431       -0.6712411495        0.9076052061
 C          0.6712887322       -0.6717673378        2.2574434358
 C          1.5580454937        0.2607870322        2.7682472584
 C          2.1330723393        1.2107981528        1.9437148002
 C          1.8020172974        1.2231615887        0.5949119244
 C          0.9189370305        0.2843327941        0.0837886100
 H          0.6624580109        0.3038156885       -0.9650120364
 N          2.3971139064        2.1777619615       -0.2576670902
 S          4.0718022552        2.1095382396       -0.3284182671
 O          4.6209884520        2.7521131952        0.8392113804
 O          4.4363552211        2.6890130797       -1.6016288865
 C          4.4393029859        0.3646382237       -0.2941158728
 C          4.1434211067       -0.3821074394       -1.4171022371
 C          4.3447583833       -1.7519461180       -1.3829285035
 C          4.8273016713       -2.3494685479       -0.2286107797
 C          5.1196667131       -1.5856038726        0.8902974818
 C          4.9223455808       -0.2144145431        0.8614821586
 H          5.1364201491        0.4164151586        1.7083649763
 H          5.4953200248       -2.0538195168        1.7856453708
 H          4.9769976355       -3.4173901094       -0.2020179869
 H          4.1195045956       -2.3463235897       -2.2541264862
 H          3.7710207446        0.1161939800       -2.2982442655
 H          2.0129847271        2.1545731606       -1.1921250060
 H          2.8320311315        1.9409681344        2.3187514193
 H          1.8046242987        0.2474333391        3.8188367787
 H          0.2195737144       -1.4047080649        2.9097616121
 H         -0.9275469605       -2.3496836509        1.1646897967
 C          0.1231328375       -2.5679439523       -0.6819860692
 C          1.1006392817       -3.5951573438       -0.1986806598
 C         -0.2112941395       -4.0245188154       -0.7823656339
 H         -0.2195179373       -4.4838919556       -1.7594258118
 H         -0.9667508406       -4.4111991655       -0.1139107421
 H          1.9985829317       -3.7591107610       -0.7732082956
 H          1.2365932840       -3.6911265332        0.8675964227
 H          0.3519354755       -2.0464879549       -1.6019658193
