  62
        -98.94342832
 C         -2.5042403119       -1.1446609209        0.0121630954
 C         -3.4456250737       -0.5843118692        0.9177147679
 C         -4.3927231261        0.3851157442        0.3596430195
 C         -4.3522295224        0.6726537770       -0.9536000330
 C         -5.2660747303        1.6185209737       -1.6841106486
 C         -4.8391698104        3.0903692263       -1.5983275266
 C         -5.0548578077        3.7519643423       -0.2365801966
 H         -6.0842166017        3.5908472801        0.0850497212
 H         -4.9223846447        4.8263937561       -0.3783350849
 C         -4.0902003672        3.2762196584        0.8588313798
 H         -3.6994834311        4.1405365960        1.4004666448
 H         -3.2351652941        2.7744140292        0.3996039193
 C         -4.7160720399        2.3396526556        1.8924164942
 H         -5.4855996894        2.8745289661        2.4533551498
 H         -3.9361173931        2.0355694832        2.5950762770
 C         -5.3394179842        1.0697411801        1.2984401005
 H         -6.2721332813        1.3107303592        0.7888876617
 H         -5.5546959249        0.3779519574        2.1163578328
 H         -5.4196149203        3.6411659018       -2.3420982865
 H         -3.7855334631        3.1652977746       -1.8772493549
 H         -6.2828311696        1.5106558795       -1.3053106618
 H         -5.2518244967        1.3162397452       -2.7335370756
 O         -3.4549768015        0.0974814533       -1.7947867545
 C         -2.4990741832       -0.7999476511       -1.3392090676
 O         -1.7344527822       -1.1989744496       -2.2424535156
 O         -3.4953102000       -0.8910469029        2.1381024893
 C         -1.5159971177       -2.1395970413        0.5973747741
 C         -0.1706742063       -1.5048309918        0.8610125531
 C          0.3401575325       -1.4298349428        2.1515280594
 C          1.5813777509       -0.8644410037        2.3859449633
 C          2.3343283609       -0.3573017590        1.3422266640
 C          1.8317912839       -0.4245805180        0.0491451945
 C          0.5915176689       -1.0019736865       -0.1838604369
 H          0.2042274530       -1.0493042894       -1.1910771025
 N          2.5712595012        0.1154216852       -1.0170727118
 S          4.1866262345       -0.3100911201       -1.1698598449
 O          4.5060296012       -0.0985147332       -2.5647440227
 O          4.4397654720       -1.6329200033       -0.6468399148
 C          5.0416925902        0.9060231035       -0.1892786120
 C          4.7894429885        2.2404768405       -0.4407563394
 C          5.4541394139        3.1993137745        0.3068918112
 C          6.3574562868        2.8100876186        1.2849192273
 C          6.6026401424        1.4663826214        1.5224829941
 C          5.9398419523        0.5020466181        0.7790841596
 H          6.0928939056       -0.5541769863        0.9331888903
 H          7.3051476887        1.1658477905        2.2831038868
 H          6.8729804027        3.5588363737        1.8653600327
 H          5.2653874662        4.2451885612        0.1253870213
 H          4.0817952693        2.5008003388       -1.2102935214
 H          2.0959619661        0.0508781043       -1.9059702612
 H          3.3004023760        0.0864507722        1.5191384511
 H          1.9659826302       -0.8142011421        3.3931045393
 H         -0.2479728337       -1.8098856607        2.9740719426
 H         -1.9439687690       -2.4251347880        1.5678348400
 C         -1.3568250011       -3.3937067627       -0.2405841967
 C         -0.8432531607       -4.6414004393        0.4104239261
 C         -2.2783993903       -4.5522612887       -0.0124222840
 H         -2.6040261503       -5.1265157618       -0.8667601683
 H         -3.0306536661       -4.4482021777        0.7558759402
 H         -0.1778528232       -5.2783672365       -0.1520134100
 H         -0.6225577821       -4.5997795514        1.4662525289
 H         -1.0516474369       -3.1961577273       -1.2601278788
