  62
        -98.94625347
 C         -1.8058291197       -1.0359485713       -0.2958884596
 C         -3.1621234897       -1.3004270712        0.0109115602
 C         -4.1218118597       -0.2691749613       -0.3989549801
 C         -3.6862778295        0.8321713886       -1.0379148302
 C         -4.5454892395        1.9587625585       -1.5449565705
 C         -4.8930444096        3.0102117187       -0.4820938407
 C         -5.9091460798        2.5617641089        0.5689671792
 H         -6.2237166299        3.4549558589        1.1123919490
 H         -6.7908435397        2.1569955488        0.0711256091
 C         -5.3675319000        1.5370550590        1.5754852995
 H         -4.2755850000        1.5368984990        1.5426324996
 H         -5.6573278701        1.8312054791        2.5867535794
 C         -5.8688675999        0.1093845390        1.3581127096
 H         -5.3953183401       -0.5378619909        2.1007934298
 H         -6.9485143100        0.0711151190        1.5191286194
 C         -5.5624494497       -0.4622435212       -0.0323919003
 H         -5.7586201897       -1.5371272812       -0.0120973202
 H         -6.2101380996       -0.0030910113       -0.7789706305
 H         -3.9715573097        3.3247075388        0.0130446594
 H         -5.3025197095        3.8776807986       -1.0048050809
 H         -3.9782661493        2.4474453084       -2.3400482005
 H         -5.4637708694        1.5547611685       -1.9722053706
 O         -2.3738916395        1.0434172986       -1.3239186000
 C         -1.4018058796        0.1259312486       -0.9517956997
 O         -0.2415346595        0.4564246286       -1.2597094496
 O         -3.5501324398       -2.3456758112        0.5980962703
 C         -0.7518270697       -2.0577845012        0.0894067407
 C          0.2957713901       -1.4219414911        0.9682862108
 C         -0.1129462801       -0.7526364810        2.1202296406
 C          0.8084060998       -0.1537285808        2.9561313107
 C          2.1596393699       -0.2023096709        2.6577562509
 C          2.5792134600       -0.8723687811        1.5161107711
 C          1.6505107502       -1.4867662112        0.6850407910
 H          2.0082735003       -1.9952462513       -0.1938918989
 N          3.9480530001       -0.9660623111        1.2015081513
 S          4.5077499503       -0.4479538413       -0.2890436187
 O          3.8695644005       -1.1934220415       -1.3417424287
 O          5.9465760803       -0.5729634313       -0.1995193984
 C          4.0706611203        1.2799905087       -0.3645271290
 C          5.0421601503        2.2163222887       -0.0644228890
 C          4.7051423603        3.5596074287       -0.0641636592
 C          3.4037979304        3.9428595487       -0.3532711495
 C          2.4410183904        2.9900769986       -0.6465791095
 C          2.7707097304        1.6429475586       -0.6538990393
 H          2.0273453804        0.8957138586       -0.8832184693
 H          1.4251557504        3.2740570986       -0.8719753097
 H          3.1377910004        4.9883192887       -0.3512214997
 H          5.4539852803        4.3015059687        0.1622703008
 H          6.0409934103        1.8719954487        0.1503356312
 H          4.5553577400       -0.6064138910        1.9249824213
 H          2.8824369598        0.2696142292        3.3060268909
 H          0.4742512597        0.3607228993        3.8444638706
 H         -1.1693142001       -0.7096667309        2.3489781605
 H         -1.2840055598       -2.8163479412        0.6829092107
 C         -0.1867722095       -2.7229254314       -1.1478059191
 C          0.3612992204       -4.1153655514       -1.0692586188
 C         -0.9387237395       -3.8597216515       -1.7693869391
 H         -0.9691882893       -3.9304807317       -2.8463863190
 H         -1.8520413095       -4.1730020814       -1.2847900991
 H          1.2285825305       -4.3595662115       -1.6643499686
 H          0.3320643703       -4.6102054413       -0.1101838387
 H          0.3007306806       -2.0229323715       -1.8183337191
