  62
        -98.94088106
 C         -2.6795200903       -0.0917398016        0.2060458792
 C         -2.5206379194       -0.9825439818       -0.8868041505
 C         -2.0784153187       -2.3449804614       -0.5714468700
 C         -1.8386204390       -2.6718282509        0.7106677702
 C         -1.3802976084       -4.0211498905        1.1839241007
 C          0.1482499016       -4.1104079296        1.2719474113
 C          0.8754794518       -3.6420627096        0.0113620715
 H          0.7522990412       -2.5616841197       -0.0962450689
 H          1.9415661218       -3.8225890989        0.1704823219
 C          0.4292037827       -4.3355036002       -1.2834710885
 H          1.3184141031       -4.5854603698       -1.8658370281
 H         -0.0800685969       -5.2714263404       -1.0491609284
 C         -0.4640083475       -3.4784009010       -2.1829875991
 H         -0.0198317480       -2.4850873307       -2.2910488392
 H         -0.4941679168       -3.9392829712       -3.1742489389
 C         -1.9144385777       -3.3062892017       -1.7141228797
 H         -2.3405429973       -4.2806370718       -1.4641720695
 H         -2.4869266177       -2.8818868322       -2.5441950900
 H          0.4848057509       -3.4897172392        2.1062185113
 H          0.4177224321       -5.1469778994        1.4863708717
 H         -1.8007857587       -4.1930536905        2.1767310006
 H         -1.7593381077       -4.7814563910        0.5031034308
 O         -1.9846502799       -1.7924979707        1.7324938199
 C         -2.3743556706       -0.4734667410        1.5128710994
 O         -2.4273991714        0.2032090492        2.5562420092
 O         -2.7657348191       -0.6485562722       -2.0785421407
 C         -3.0903988210        1.3251439281       -0.1594686414
 C         -1.8976266012        2.0560148786       -0.7255520611
 C         -2.0124896513        2.8850853583       -1.8353040314
 C         -0.8977388314        3.5153726587       -2.3596706312
 C          0.3540354885        3.3056231896       -1.8096134906
 C          0.4784721386        2.4756674100       -0.7015869004
 C         -0.6469553713        1.8807470895       -0.1530533306
 H         -0.5342133913        1.2436714698        0.7125420096
 N          1.7297951085        2.2093160109       -0.1184187998
 S          1.9814156192        0.6023751312        0.3603597207
 O          1.3876363801       -0.2918478995       -0.6058028292
 O          1.5588203788        0.4535227213        1.7304135106
 C          3.7610130893        0.5148724922        0.2799645014
 C          4.3683642001       -0.1388475378       -0.7747487582
 C          5.7531741801       -0.1661380770       -0.8375450476
 C          6.5015901794        0.4610320937        0.1469382725
 C          5.8771111486        1.1133459136        1.2001241921
 C          4.4935642386        1.1419741629        1.2707051615
 H          3.9631562380        1.6264460328        2.0739958512
 H          6.4618404980        1.5978571642        1.9652515121
 H          7.5785976194        0.4396998243        0.0947233529
 H          6.2409081707       -0.6755110570       -1.6528883573
 H          3.7439425206       -0.6151243983       -1.5136032783
 H          2.5009828685        2.5527906812       -0.6757123896
 H          1.2288963984        3.7714910100       -2.2371827904
 H         -1.0000393015        4.1565410984       -3.2219435214
 H         -2.9779916311        3.0125846176       -2.3023896718
 H         -3.8201312106        1.2158197875       -0.9794965916
 C         -3.7733867019        2.0947355380        0.9590123981
 C         -3.0726918228        3.1374732286        1.7717759881
 C         -4.1208848526        3.5435204678        0.7822922976
 H         -5.0730549230        3.8909099073        1.1531539471
 H         -3.7895274026        4.0327571877       -0.1206657824
 H         -3.2963874132        3.1825579788        2.8263573180
 H         -2.0389657028        3.3460611192        1.5414330584
 H         -4.4948611017        1.4813789477        1.4880135780
