  62
        -98.93871635
 C          1.9810659593        0.8733279923       -0.4491553519
 C          3.0521403658        1.1660594333        0.4290379264
 C          4.3391479548        0.4920758314        0.1726565647
 C          4.4238062211       -0.3638102656       -0.8627169617
 C          5.6037228581       -1.1945470592       -1.2921730578
 C          5.8315624672       -2.4145465240       -0.3851867623
 C          5.7208103701       -2.1330023588        1.1109680981
 H          4.7324256000       -1.7225574246        1.3260562312
 H          5.7941356622       -3.0898860900        1.6346398010
 C          6.7923109750       -1.2058734153        1.6799048881
 H          6.6466604265       -1.1688576404        2.7625548670
 H          7.7771781603       -1.6396460226        1.4927666857
 C          6.7846449504        0.2300282469        1.1510970370
 H          7.2312233919        0.2867252878        0.1620378262
 H          7.4220141348        0.8233852533        1.8132178448
 C          5.4146101744        0.9006526859        1.1503732967
 H          4.9686802409        0.8056340328        2.1469281014
 H          5.5543016365        1.9779924250        0.9997569205
 H          5.0812788254       -3.1679364400       -0.6379042252
 H          6.8154143172       -2.8309332950       -0.6081075310
 H          5.3864121885       -1.5488384645       -2.3023285627
 H          6.4960374048       -0.5776878915       -1.3430222620
 O          3.3623414461       -0.6239341447       -1.6773621345
 C          2.1265855012       -0.0279655855       -1.5027086075
 O          1.2735886429       -0.3752733393       -2.3427571049
 O          2.9428973565        1.9635060179        1.3988822209
 C          0.6456546817        1.5512339270       -0.1915892675
 C         -0.3289683389        0.5262613169        0.3327267929
 C         -0.3704237132        0.2512426491        1.6963672208
 C         -1.2395276684       -0.6989086680        2.2004807856
 C         -2.0852062176       -1.3951206954        1.3549125191
 C         -2.0442675881       -1.1331996538       -0.0080938303
 C         -1.1795334502       -0.1711782678       -0.5116748594
 H         -1.1453181774        0.0097884901       -1.5743067543
 N         -2.9126413291       -1.8302958752       -0.8690184358
 S         -4.5369610549       -1.7951301498       -0.4632412148
 O         -4.8086092531       -2.8036249360        0.5308142208
 O         -5.2535272335       -1.9324032044       -1.7118779247
 C         -4.7879030889       -0.1732411815        0.2384816535
 C         -5.1416617935       -0.0432281950        1.5656813358
 C         -5.2728604127        1.2275028623        2.1027740950
 C         -5.0422172383        2.3398676954        1.3088264709
 C         -4.6898130703        2.1927437209       -0.0241380995
 C         -4.5594838967        0.9251933182       -0.5667848684
 H         -4.2906966147        0.7769654691       -1.6003629408
 H         -4.5101629608        3.0596154590       -0.6396261056
 H         -5.1374488032        3.3284121944        1.7296235497
 H         -5.5483301909        1.3452609065        3.1383751128
 H         -5.3059214173       -0.9349354941        2.1482116393
 H         -2.7739106097       -1.6086674361       -1.8441710425
 H         -2.7704137833       -2.1402574992        1.7259251780
 H         -1.2610162905       -0.8994052850        3.2607554033
 H          0.2962045052        0.7882807273        2.3562550604
 H          0.8414286058        2.2724568237        0.6130250907
 C          0.1304337423        2.2998975999       -1.4039398420
 C         -1.0365611160        3.2268841896       -1.2433241455
 C          0.3328601465        3.7813128200       -1.4938095338
 H          0.5472461736        4.2131780113       -2.4600238488
 H          0.8461861643        4.2661919643       -0.6765707328
 H         -1.7642468422        3.2802353047       -2.0385405396
 H         -1.4544316307        3.3302733799       -0.2534600071
 H          0.2060539887        1.7349653988       -2.3248061041
