  62
        -98.94444534
 C         -2.6993415745       -1.0727341055        0.1511571241
 C         -2.4829468029       -0.1713250256       -0.9199380042
 C         -3.0801713225        1.1637220275       -0.7664669354
 C         -3.8220082720        1.4396907696        0.3206253954
 C         -4.4351424195        2.7738918329        0.6290008872
 C         -3.4898637503        3.6335138647        1.4799621819
 C         -2.0600907797        3.7032816691        0.9419960615
 H         -1.4955752495        4.3641485913        1.6034675417
 H         -1.5969795724        2.7155630390        1.0099562483
 C         -1.9466373128        4.2114494407       -0.5019464439
 H         -2.8609889928        4.7351230079       -0.7846328158
 H         -1.1278449583        4.9319868113       -0.5551581420
 C         -1.6451736034        3.1240416616       -1.5354480792
 H         -1.3635882579        3.6143583742       -2.4718459004
 H         -0.7821158735        2.5359217717       -1.2073853775
 C         -2.8038449224        2.1678940001       -1.8493091639
 H         -3.7017091293        2.7436182521       -2.0833890679
 H         -2.5259427422        1.5885138375       -2.7346993087
 H         -3.9039547533        4.6413142502        1.5441873982
 H         -3.4541224400        3.2146551580        2.4881401068
 H         -4.6689120300        3.2850236816       -0.3026757567
 H         -5.3593135226        2.6074581064        1.1848777680
 O         -4.0594874545        0.5300896520        1.2992283206
 C         -3.4760956344       -0.7235457833        1.2604047884
 O         -3.7305933513       -1.4359403099        2.2515356150
 O         -1.8311733410       -0.4465259848       -1.9630451776
 C         -2.0371468763       -2.4434584400        0.2093162999
 C         -0.5801170768       -2.2022223646        0.5214718507
 C         -0.1383464857       -2.2117901177        1.8409081035
 C          1.1642520673       -1.8657702694        2.1517609524
 C          2.0461065819       -1.4792659672        1.1572055161
 C          1.6103875229       -1.4582363697       -0.1602797470
 C          0.3175495475       -1.8476364224       -0.4749816853
 H         -0.0119679701       -1.8063720069       -1.5014120571
 N          2.4848895299       -1.0015906918       -1.1714825238
 S          2.9267369020        0.6179549948       -1.0125455279
 O          1.9210453685        1.3782885953       -0.3062562649
 O          3.2562963824        1.0657141574       -2.3485626030
 C          4.4219630810        0.5366184976       -0.0481830533
 C          5.4644332506       -0.2296461164       -0.5323417483
 C          6.6369125702       -0.3046814961        0.2021776273
 C          6.7478075132        0.3865884178        1.3997186386
 C          5.6934790747        1.1541397642        1.8702904372
 C          4.5167564954        1.2317224613        1.1411160058
 H          3.6673725796        1.8087626532        1.4705847960
 H          5.7812133684        1.6907779491        2.8013308205
 H          7.6612053281        0.3265938302        1.9701170495
 H          7.4587568823       -0.9010679650       -0.1598782025
 H          5.3363448362       -0.7472866059       -1.4681964129
 H          2.1049385191       -1.1445747716       -2.0980171190
 H          3.0551399324       -1.1823480076        1.3936568163
 H          1.4922919675       -1.8814633945        3.1800191620
 H         -0.8381189808       -2.4678413191        2.6240841390
 H         -2.4900750624       -2.9602760908        1.0651934647
 C         -2.2671073289       -3.2744765572       -1.0350538512
 C         -1.9770734801       -4.7438380763       -0.9879613033
 C         -3.3940130254       -4.2612598366       -1.0550944164
 H         -3.9432178710       -4.3953786586       -1.9749374533
 H         -4.0044329482       -4.3410054833       -0.1673605357
 H         -1.5518123050       -5.2136681125       -1.8615061245
 H         -1.6248152005       -5.1515943899       -0.0525668402
 H         -2.0603969578       -2.7465039958       -1.9565271286
