  62
        -98.94791701
 C         -1.1288807825       -1.1865450563        0.4804547394
 C         -1.5256423006       -0.4785669016       -0.6794215630
 C         -2.3017759269        0.7459715307       -0.4393151072
 C         -2.4879963841        1.1843849910        0.8186821077
 C         -3.2200712979        2.4362644557        1.2202341178
 C         -4.7400323136        2.2551278155        1.3361472700
 C         -5.4796158408        2.0998008883        0.0064585721
 H         -6.5457125400        2.1961094760        0.2212176784
 H         -5.2065875728        2.9202311880       -0.6577858083
 C         -5.2376078694        0.7584188393       -0.7002142414
 H         -4.8213329116        0.0418444289        0.0117894586
 H         -6.1913554911        0.3502854809       -1.0421107319
 C         -4.3167910235        0.8398838834       -1.9180134402
 H         -4.1831175057       -0.1698464434       -2.3139564086
 H         -4.7895220698        1.4461759988       -2.6936725044
 C         -2.9279973136        1.4222929984       -1.6224800910
 H         -3.0054731359        2.4972138612       -1.4585091755
 H         -2.2875420252        1.2377935461       -2.4883307297
 H         -4.9403654529        1.3871190096        1.9687793546
 H         -5.1350391416        3.1360655557        1.8474511468
 H         -3.0013654464        3.2364894159        0.5125138670
 H         -2.8309577297        2.7236884653        2.1996089216
 O         -1.9979605283        0.5258544164        1.9047500966
 C         -1.3591807658       -0.6972207918        1.7663725138
 O         -1.0440994383       -1.2374878516        2.8468532547
 O         -1.2618040677       -0.8476141423       -1.8517453492
 C         -0.4158322251       -2.5214493789        0.3528781450
 C          0.9217042481       -2.3237574260       -0.3185930483
 C          1.2873564579       -2.9437613618       -1.5055702469
 C          2.5352597256       -2.7121481303       -2.0579205454
 C          3.4384992817       -1.8677001630       -1.4403741378
 C          3.0867658042       -1.2503073560       -0.2440576903
 C          1.8350809248       -1.4801769840        0.3039798720
 H          1.5695390328       -1.0060908544        1.2382271850
 N          4.0056574211       -0.4239678865        0.4236196852
 S          3.5314469932        0.9999029323        1.1522313100
 O          4.7763449208        1.6885791228        1.4171890400
 O          2.6976684446        0.7323593252        2.2957919470
 C          2.6218908939        1.8854505753       -0.0981630317
 C          1.2439161729        1.9185373127       -0.0577083166
 C          0.5623485641        2.5967361222       -1.0557831684
 C          1.2655788708        3.2162630322       -2.0765050476
 C          2.6514466091        3.1724658609       -2.1047399544
 C          3.3379776214        2.5013546942       -1.1069847674
 H          4.4147157423        2.4602712062       -1.0795931660
 H          3.1952182040        3.6590102457       -2.8982662543
 H          0.7270676921        3.7380517697       -2.8516011628
 H         -0.5144626362        2.6252237838       -1.0303575423
 H          0.7257680465        1.4229582478        0.7493313941
 H          4.8849371307       -0.3045003850       -0.0583091317
 H          4.4124051806       -1.6916931847       -1.8707553162
 H          2.8066383277       -3.1954121982       -2.9840175386
 H          0.5954254020       -3.6034147480       -2.0015882680
 H         -0.2240662876       -2.8592565019        1.3819384259
 C         -1.3075187296       -3.5339027249       -0.3347137734
 C         -1.0928062985       -4.9983038628       -0.1030408759
 C         -2.2870803878       -4.3128970041        0.4883747608
 H         -3.2615402830       -4.5201323026        0.0719874187
 H         -2.2987885636       -4.1290886378        1.5533410845
 H         -1.2496799533       -5.6804713635       -0.9246799933
 H         -0.2932549124       -5.2858675395        0.5629596230
 H         -1.6300481113       -3.2117957181       -1.3176429777
