  62
        -98.93080849
 C         -2.2906949057       -1.0180345322        0.2759568779
 C         -2.6019366581        0.2956806450        0.7086409341
 C         -3.9133337610        0.8446599166        0.3191616885
 C         -4.7309660366        0.0935516737       -0.4397659301
 C         -6.1067676994        0.4207795453       -0.9627950214
 C         -6.3085065596        1.8311918386       -1.5376676558
 C         -7.1844531424        2.7265877544       -0.6596570136
 H         -7.6300680988        3.5022323829       -1.2863820887
 H         -8.0011927874        2.1249435085       -0.2556075674
 C         -6.4557645428        3.4235399412        0.4879951816
 H         -5.8125718813        4.2085888092        0.0844612421
 H         -7.2096855571        3.9098459533        1.1115301944
 C         -5.6038723212        2.5106620474        1.3722995528
 H         -6.1189556861        1.5689201387        1.5582536372
 H         -5.4807067923        3.0025349107        2.3395955253
 C         -4.2018586248        2.2384357347        0.8063040087
 H         -3.9788428531        2.9463368865        0.0026261796
 H         -3.4502344103        2.4203621344        1.5810013423
 H         -5.3420984848        2.3010359203       -1.7136334209
 H         -6.7986899495        1.7278600139       -2.5070519226
 H         -6.2995344668       -0.3264690570       -1.7357869245
 H         -6.8319257760        0.2379248109       -0.1659281708
 O         -4.3916585197       -1.1643340437       -0.8358842525
 C         -3.1862148135       -1.7555796428       -0.4976792833
 O         -3.0609443230       -2.9113312859       -0.9470481251
 O         -1.8136540677        0.9875716063        1.4102935950
 C         -0.9411692269       -1.5742456833        0.6952342147
 C          0.0783341052       -1.4684875059       -0.4143285771
 C         -0.0455871737       -2.1997204075       -1.5916156456
 C          0.9184807005       -2.1031405462       -2.5779899615
 C          2.0290771443       -1.2959681222       -2.4049244651
 C          2.1574796050       -0.5547459416       -1.2362591940
 C          1.1799393744       -0.6405170810       -0.2545147912
 H          1.2884093210       -0.0510943735        0.6445896346
 N          3.2603069512        0.2916024508       -1.0411946894
 S          3.8790971697        0.4556435192        0.5212269958
 O          3.9236960104       -0.8337277650        1.1732820711
 O          3.1498930110        1.4932457871        1.2060813392
 C          5.5298656200        1.0222359856        0.1554652561
 C          5.7232846858        2.3603433461       -0.1321127323
 C          6.9991829929        2.7996077163       -0.4476889169
 C          8.0540452291        1.8990776044       -0.4708601078
 C          7.8447616147        0.5597836072       -0.1781586122
 C          6.5708740446        0.1133172145        0.1370471632
 H          6.3619644189       -0.9162085469        0.3797165680
 H          8.6673432383       -0.1369106707       -0.1935808732
 H          9.0460988977        2.2441380144       -0.7159232476
 H          7.1662079839        3.8405704477       -0.6728754783
 H          4.8748995779        3.0236811846       -0.0918125816
 H          3.9919047672        0.1497601402       -1.7241753965
 H          2.7868157709       -1.2332931925       -3.1712646191
 H          0.8100537353       -2.6738992971       -3.4880064004
 H         -0.9084263443       -2.8330632840       -1.7274694262
 H         -0.6025333476       -0.9199737064        1.5108581686
 C         -1.0047568208       -2.9960037618        1.2202266152
 C          0.1488565096       -3.5157468306        2.0229364397
 C         -1.1620634208       -3.2299491005        2.6909900374
 H         -1.7670816493       -4.0622199544        3.0179958984
 H         -1.2293146340       -2.3621610670        3.3312532105
 H          0.4446281735       -4.5452576868        1.8914941782
 H          0.9744369789       -2.8424926271        2.2049626229
 H         -1.5036490609       -3.6826246765        0.5491166397
