  62
        -98.94488356
 C         -1.9190472532       -0.2785888775        0.0479886942
 C         -2.9816620030       -0.5385257513        0.9503352207
 C         -4.2077538170        0.2380935568        0.7416544411
 C         -4.2517750314        1.1647540729       -0.2327032320
 C         -5.4183402870        2.0600565714       -0.5508563871
 C         -6.4739164902        1.4113942278       -1.4569374058
 C         -7.3358670734        0.3396437641       -0.7883233588
 H         -7.7601409045        0.7393056767        0.1333047471
 H         -8.1667284890        0.1295293979       -1.4648246745
 C         -6.5975183625       -0.9730645098       -0.4914490066
 H         -5.6773311718       -1.0140068723       -1.0787268916
 H         -7.2154301485       -1.8171627496       -0.8058333830
 C         -6.2535341463       -1.1880570317        0.9824555750
 H         -5.7026473838       -2.1277063872        1.0718920140
 H         -7.1735852067       -1.2806014732        1.5637287704
 C         -5.3961581889       -0.0753660178        1.5996899164
 H         -5.9979159657        0.8192988417        1.7582133014
 H         -5.0252951985       -0.4239070186        2.5666235083
 H         -7.1323644343        2.2079376368       -1.8111308590
 H         -5.9715993539        0.9842276223       -2.3279878392
 H         -5.8874301541        2.3941173925        0.3750677803
 H         -5.0093939093        2.9313422041       -1.0671948440
 O         -3.1972737439        1.4133088432       -1.0526743919
 C         -2.0148744193        0.6931587189       -0.9481514439
 O         -1.1536616631        1.0147044917       -1.7894282917
 O         -2.9065665173       -1.3793424615        1.8847728726
 C         -0.6310665856       -1.0667494429        0.2205104926
 C          0.4384466000       -0.1329946671        0.7281176177
 C          0.4997248137        0.1614824713        2.0871856135
 C          1.4506203663        1.0356173808        2.5805250851
 C          2.3576359907        1.6405167582        1.7272773273
 C          2.2967677549        1.3602528629        0.3694581840
 C          1.3518349429        0.4704212231       -0.1226642877
 H          1.3096647518        0.2728889573       -1.1820790436
 N          3.2261794827        1.9690495306       -0.5041087792
 S          4.8186814346        1.4949292325       -0.2873282158
 O          5.3023172365        2.0340092670        0.9580956618
 O          5.5213859900        1.9081771166       -1.4806769944
 C          4.7372076599       -0.2842376474       -0.1954193031
 C          4.5398161609       -0.8884128635        1.0299449574
 C          4.3817770305       -2.2641382739        1.0787930109
 C          4.4228940011       -3.0072046087       -0.0907127353
 C          4.6262510679       -2.3852788728       -1.3130783039
 C          4.7776925879       -1.0094535074       -1.3694882925
 H          4.9397451997       -0.4867538694       -2.2987206368
 H          4.6626927127       -2.9668869632       -2.2203550371
 H          4.2960264589       -4.0776109240       -0.0501165029
 H          4.2231337608       -2.7499303497        2.0281669585
 H          4.5186817846       -0.2769197399        1.9168649721
 H          2.9710204021        1.8641642469       -1.4763280613
 H          3.1139612009        2.3171466545        2.0913703396
 H          1.4863546446        1.2507720816        3.6377891460
 H         -0.2164409455       -0.3003853479        2.7523238912
 H         -0.8459061966       -1.7972347476        1.0119575208
 C         -0.2333595343       -1.8106468089       -1.0375446000
 C          0.8556205744       -2.8378146715       -0.9615929146
 C         -0.5655246494       -3.2654365281       -1.1684694363
 H         -0.8566676482       -3.6407072693       -2.1381432590
 H         -1.0834794275       -3.7360889877       -0.3458701387
 H          1.5455178722       -2.9204005754       -1.7871491994
 H          1.3056403197       -3.0118790690        0.0038654412
 H         -0.2993051057       -1.2063114655       -1.9339912443
