  62
        -98.94270313
 C          1.1344769084        1.3811022879       -0.8906717820
 C          0.5081889891        2.2508297339        0.0336796713
 C         -0.9160745042        2.5225245328       -0.2035566520
 C         -1.5486100999        1.9160620476       -1.2227595772
 C         -3.0074118155        2.0420209764       -1.5703114305
 C         -3.9723496284        1.4657783295       -0.5143461778
 C         -4.5409721491        2.5150708792        0.4493236985
 H         -4.4881610928        3.4957480808       -0.0257918963
 H         -5.5991687865        2.3031814701        0.6161762906
 C         -3.8753909024        2.5806622058        1.8276096107
 H         -4.1802705336        3.5168646124        2.3017169139
 H         -4.2515540497        1.7604072910        2.4437961493
 C         -2.3482787627        2.4898541388        1.8432190668
 H         -2.0032105599        2.7595238378        2.8441465799
 H         -2.0383889474        1.4539456854        1.6842497006
 C         -1.6349572797        3.3742941413        0.8014505110
 H         -2.3437699847        4.0382614281        0.3081368123
 H         -0.8749002037        3.9830581501        1.2959928698
 H         -3.4672360537        0.6761631474        0.0448708882
 H         -4.8037415729        1.0047761093       -1.0506869817
 H         -3.2439583776        3.0929852256       -1.7494865502
 H         -3.1376438850        1.5047529125       -2.5119386625
 O         -0.9091848335        1.0900805667       -2.0946303432
 C          0.4307657165        0.7794200201       -1.9329696083
 O          0.8746482202       -0.0322974090       -2.7710579235
 H          0.9042527081       -1.0333723870       -0.0506382431
 C          1.5892003195       -0.8550055598        0.7657040064
 C          2.5697427119        0.1198350907        0.6260362287
 C          3.4577732193        0.3213806003        1.6730843791
 C          3.3336619500       -0.4129018425        2.8412779790
 C          2.3193893722       -1.3398556955        2.9969982048
 C          1.4351780019       -1.5596162047        1.9460188878
 N          0.3916549209       -2.4919261154        2.0438709565
 S         -1.0582137785       -2.1942797371        1.2609479920
 O         -1.3908131972       -0.7889044896        1.2378841970
 O         -2.0097931011       -3.0496706447        1.9420201639
 C         -0.8216942508       -2.8106609556       -0.3907130361
 C         -0.0475904544       -3.9371695147       -0.5857944411
 C          0.1040077679       -4.4274837784       -1.8724896182
 C         -0.5210294899       -3.7915942570       -2.9344384878
 C         -1.3013393738       -2.6668490790       -2.7205227827
 C         -1.4566334182       -2.1717513026       -1.4361420998
 H         -2.0403400066       -1.2874800029       -1.2325203757
 H         -1.7785641777       -2.1635812812       -3.5458509215
 H         -0.3960731873       -4.1700737831       -3.9366988909
 H          0.7127624989       -5.3006197231       -2.0444743607
 H          0.4291334649       -4.4008517332        0.2617503049
 H          0.2556913742       -2.8982998719        2.9577891620
 H          2.2060646911       -1.8851220394        3.9215496458
 H          4.0254770147       -0.2436535733        3.6525140835
 H          4.2346486612        1.0627470087        1.5833630287
 C          2.5635409224        0.9179991719       -0.6570527735
 H          2.8019105385        0.2361770606       -1.4864523784
 C          3.5413022316        2.0714031852       -0.6710925344
 C          4.9760293372        1.8313295711       -1.0315723198
 C          4.0743684608        2.5535769043       -1.9856616945
 H          4.2131442763        3.6148676565       -2.1266848604
 H          3.7467973232        2.0344628906       -2.8747271944
 H          5.7384046520        2.3990068020       -0.5198507249
 H          5.2672066542        0.8213093141       -1.2773560687
 H          3.3178959351        2.8174614493        0.0820479745
 O          1.1024165701        2.7749275015        1.0123774399
