  62
        -98.93761414
 C          1.1732652626        0.8314495047        0.6163724163
 C          1.9291478680        0.5980798262       -0.5563710605
 C          2.9538810179       -0.4617623575       -0.4788234524
 C          3.0704903092       -1.1951659711        0.6426608195
 C          3.9785841308       -2.3577736235        0.9861004472
 C          5.2033257256       -2.6730115487        0.1310189613
 C          6.3068527776       -1.6166715985        0.1776517862
 H          7.0812544700       -1.9017697313       -0.5377623538
 H          6.7547048628       -1.6262276861        1.1745403495
 C          5.8626540636       -0.1856803015       -0.1147287906
 H          6.7445929365        0.4573331109       -0.0513478424
 H          5.1664886477        0.1464735653        0.6581309850
 C          5.2248194292        0.0343727521       -1.4851672412
 H          5.8933156799       -0.3345065856       -2.2653374566
 H          5.1106387088        1.1126446613       -1.6249342204
 C          3.8396321333       -0.6066167983       -1.6826294612
 H          3.9224666873       -1.6512427212       -1.9738612340
 H          3.3345635221       -0.0804687800       -2.4982205572
 H          4.9052984805       -2.8684377848       -0.8949544690
 H          5.6216087427       -3.6050411276        0.5210572884
 H          3.3308405035       -3.2418811206        1.0035475069
 H          4.2978546232       -2.1902218837        2.0199308950
 O          2.2518836737       -0.9952078421        1.7177876725
 C          1.2919526667        0.0000288223        1.7305053429
 O          0.6103595622        0.0390777514        2.7753736563
 O          1.7671475659        1.2328419247       -1.6303405249
 C          0.0862098385        1.8901258544        0.6717892391
 C         -0.8328536001        1.7411711797       -0.5166153174
 C         -1.2464127941        2.7893884070       -1.3274491886
 C         -2.1227772707        2.5561963764       -2.3739291067
 C         -2.6231216118        1.2903399149       -2.6185975264
 C         -2.2113472125        0.2339239574       -1.8136164752
 C         -1.3211252261        0.4681078830       -0.7802320226
 H         -0.9791162581       -0.3635031693       -0.1829265646
 N         -2.6890260446       -1.0698102255       -2.0162590874
 S         -2.9178347568       -2.0707900504       -0.6987489564
 O         -1.6564538924       -2.5935061041       -0.2339699882
 O         -3.8719429649       -3.0561354009       -1.1627816980
 C         -3.6777459966       -1.0362070442        0.5414631980
 C         -3.0055572295       -0.7114148988        1.7016067889
 C         -3.6176264544        0.1314035159        2.6166370976
 C         -4.8842934547        0.6309512855        2.3589848890
 C         -5.5514673490        0.2878715279        1.1924554702
 C         -4.9437362686       -0.5510086197        0.2735999403
 H         -5.4347379838       -0.8483240986       -0.6386397281
 H         -6.5387571712        0.6736955222        0.9965223535
 H         -5.3531737457        1.2890107150        3.0733591901
 H         -3.0903123561        0.3945650923        3.5200179348
 H         -2.0169845944       -1.1070524442        1.8787285767
 H         -3.4259268556       -1.1584546383       -2.6998206384
 H         -3.3120027451        1.1148606275       -3.4303869742
 H         -2.4279605004        3.3768324243       -3.0051673541
 H         -0.8682011012        3.7836380652       -1.1563297126
 H         -0.5051038924        1.6304059608        1.5666112150
 C          0.5876795347        3.3104103400        0.8873461015
 C          1.9416122433        3.5751350617        1.4741622591
 C          1.6642010145        3.9221502358        0.0438950492
 H          1.5759749340        4.9661445563       -0.2197494383
 H          2.0975976441        3.3087422115       -0.7292327091
 H          2.0422939391        4.3756881274        2.1918558444
 H          2.5731995630        2.7224968893        1.6795415152
 H         -0.2081658844        3.9733580069        1.2125252934
