  62
        -98.93410944
 C         -2.0894913924       -0.9834673452        0.3214837386
 C         -1.9752428477        0.0402150509       -0.6504225388
 C         -2.1825981594        1.4197380383       -0.1717554161
 C         -2.4459231647        1.6461862235        1.1248692030
 C         -2.6422841836        2.9671553486        1.8259573699
 C         -3.5146624262        4.0187987474        1.1240327275
 C         -4.6426061749        3.4535010064        0.2482203151
 H         -5.5789143794        3.9462014437        0.5165554662
 H         -4.7674491808        2.3868106399        0.4413627741
 C         -4.4072312668        3.6774429211       -1.2478020401
 H         -4.0296023538        4.6917070196       -1.3939627472
 H         -5.3651459274        3.6063663590       -1.7683885947
 C         -3.4539683410        2.6889583649       -1.9194344021
 H         -3.2714317189        3.0348492373       -2.9396858034
 H         -3.9282874926        1.7067673400       -1.9941567906
 C         -2.1009413085        2.4958473073       -1.2157012058
 H         -1.7345410041        3.4304724754       -0.7968954595
 H         -1.3750546026        2.1438240476       -1.9547787435
 H         -2.8838006131        4.6643133473        0.5143112422
 H         -3.9427939078        4.6463740120        1.9074224067
 H         -3.0823707445        2.7110525427        2.7927821602
 H         -1.6536222010        3.3918924723        2.0240587674
 O         -2.5455948557        0.6322894955        2.0304446244
 C         -2.3545311764       -0.6848947900        1.6595358234
 O         -2.4621642360       -1.4992709957        2.6006095792
 H          0.3310391112       -1.0163436972       -0.7637196273
 C          0.6014578531       -1.9224492804       -0.2439373332
 C         -0.3789121473       -2.7866775641        0.2187877717
 C          0.0129807549       -3.9531994420        0.8659729264
 C          1.3531954317       -4.2356348718        1.0589692482
 C          2.3265866201       -3.3485868168        0.6360237039
 C          1.9445275635       -2.1825656391       -0.0171759688
 N          2.8966228313       -1.2497861984       -0.4585616154
 S          2.5053799136        0.3895571053       -0.2978915035
 O          1.7565896942        0.6035000059        0.9205808042
 O          1.8995178021        0.8476607472       -1.5217733825
 C          4.1397206309        1.0914364913       -0.1486894219
 C          4.6675333204        1.3104932050        1.1097420773
 C          5.9525783000        1.8186473750        1.2188934650
 C          6.6855850957        2.0937523469        0.0741475144
 C          6.1423628260        1.8692285285       -1.1821781184
 C          4.8575489891        1.3627302174       -1.2983227646
 H          4.3887703403        1.1802612520       -2.2512385347
 H          6.7137368828        2.0870045149       -2.0699737616
 H          7.6855399938        2.4880309929        0.1620958946
 H          6.3756045843        1.9973186091        2.1942621644
 H          4.0566107090        1.0887973816        1.9703350775
 H          3.8288760503       -1.4460974093       -0.1194286831
 H          3.3718587375       -3.5530462077        0.8113096474
 H          1.6428167270       -5.1442423565        1.5645137830
 H         -0.7420357657       -4.6299205186        1.2372969739
 C         -1.8431088527       -2.4560799387        0.0375766548
 H         -2.4023226469       -3.0082956876        0.8068271456
 C         -2.3206527044       -2.9203438492       -1.3244877856
 C         -2.7155993595       -4.3528369484       -1.5147199279
 C         -3.7620619298       -3.2800182057       -1.5159827444
 H         -4.2367943105       -3.0155530448       -2.4486530848
 H         -4.4130529315       -3.2012628704       -0.6571062653
 H         -2.6662135214       -5.0070606110       -0.6577618885
 H         -2.4693992227       -4.8320456245       -2.4496095117
 H         -1.8199234224       -2.4205711087       -2.1432450379
 O         -1.7083817859       -0.1567564739       -1.8657341739
