  62
        -98.94601785
 C         -1.9350571903       -1.3138867490        0.2054811300
 C         -1.7492876196        0.0867628609        0.1289548206
 C         -2.9329182192        0.9018116814        0.4290253408
 C         -4.0933621895        0.3031857119        0.7536480405
 C         -5.3820927592        0.9989820424        1.0991196607
 C         -6.2121231389        1.4184093733       -0.1220575792
 C         -5.6571518282        2.6048212233       -0.9115604488
 H         -6.4432442280        2.9287807839       -1.5965657187
 H         -5.4585500279        3.4324666229       -0.2299677484
 C         -4.3939331583        2.2897847129       -1.7251277188
 H         -4.4967263381        2.7021911834       -2.7314801587
 H         -4.2905173889        1.2074802729       -1.8331008492
 C         -3.1016126181        2.8533529021       -1.1341855985
 H         -2.2691492982        2.5364030519       -1.7676786786
 H         -3.1385955175        3.9449482821       -1.1471945981
 C         -2.8114942184        2.3901453314        0.2991088513
 H         -1.7818590083        2.6595617908        0.5461428815
 H         -3.4814845782        2.8894844815        0.9985400115
 H         -7.2088275988        1.6838629336        0.2379430808
 H         -6.3178215493        0.5568260736       -0.7854505496
 H         -5.9695397696        0.2904861925        1.6870852204
 H         -5.1733277088        1.8733447120        1.7162217210
 O         -4.2262927302       -1.0484634081        0.8266560100
 C         -3.1595873506       -1.8873960085        0.5463201197
 O         -3.4209682312       -3.1037271184        0.6435914993
 H          1.8643998595       -1.7939350106       -0.8125146599
 C          1.6811081495       -1.7087598509        0.2449654201
 C          0.4105407394       -1.9003213604        0.7632400300
 C          0.2279360993       -1.7893938909        2.1400673700
 C          1.2860475294       -1.4763851517        2.9701916102
 C          2.5488439896       -1.2595592621        2.4455070304
 C          2.7447195296       -1.3769617717        1.0754127603
 N          4.0234901097       -1.1981719222        0.5190987105
 S          4.2795778303       -0.1850320218       -0.7870910491
 O          3.4901080102       -0.6174496710       -1.9106477193
 O          5.7143586404       -0.1963662225       -0.9735513390
 C          3.7725815811        1.4364325982       -0.2410285886
 C          4.7523962116        2.3461750076        0.1094752918
 C          4.3768919022        3.5986401476        0.5660520323
 C          3.0313334323        3.9178875683        0.6722242423
 C          2.0622432619        2.9913147889        0.3220663319
 C          2.4289223913        1.7364864089       -0.1400702585
 H          1.6774635509        1.0118790994       -0.4103591589
 H          1.0123960220        3.2243088694        0.4025875519
 H          2.7359914228        4.8923112183        1.0286513427
 H          5.1311031125        4.3197247471        0.8375025326
 H          5.7855320914        2.0558302371        0.0062896718
 H          4.7510045398       -1.0514229628        1.2045367106
 H          3.3756636297       -1.0074379928        3.0921315605
 H          1.1270066394       -1.3927231820        4.0347493102
 H         -0.7610778508       -1.9495574305        2.5485791899
 C         -0.7760882307       -2.2437695395       -0.1037315602
 H         -1.1150756113       -3.2555993394        0.1634761194
 C         -0.4700286506       -2.2119399591       -1.5869774802
 C          0.1188940888       -3.4120933192       -2.2629093406
 C         -1.3074959810       -3.0311520483       -2.5202679906
 H         -1.5661433707       -2.6149101179       -3.4824855404
 H         -2.0874385413       -3.6373707181       -2.0821995508
 H          0.3083419583       -4.2848013795       -1.6561257209
 H          0.8450347189       -3.2548573392       -3.0465921605
 H         -0.1561283201       -1.2325869891       -1.9317586798
 O         -0.6545958493        0.6300875405       -0.1678382192
