  62
        -98.94538647
 C          1.4545301404        1.3031410991       -0.5271765690
 C          2.7794321703        1.3534827289       -0.0189005587
 C          3.7101545403        0.3359610089       -0.5151291186
 C          3.2866735504       -0.5675061509       -1.4170056489
 C          4.1155060804       -1.6636615909       -2.0298252089
 C          4.2077115301       -2.9286908210       -1.1656580491
 C          5.0912917698       -2.8039963313        0.0763880111
 H          5.2453040897       -3.8137698814        0.4620428310
 H          6.0675042299       -2.4123921814       -0.2115418286
 C          4.4950031197       -1.9359942715        1.1935662112
 H          4.6083046594       -2.4481482716        2.1519109411
 H          3.4219157898       -1.8115995113        1.0255619109
 C          5.1390470798       -0.5568414616        1.3381283715
 H          4.6128006297       -0.0159393616        2.1288168815
 H          6.1818709497       -0.6703096117        1.6426580117
 C          5.0912304902        0.2993485287        0.0661138616
 H          5.3670933602        1.3228334186        0.3315305419
 H          5.8032171603       -0.0768065513       -0.6681801283
 H          3.1978413100       -3.2219793410       -0.8671674793
 H          4.6124145401       -3.7250135410       -1.7948483791
 H          5.1184667905       -1.2913728610       -2.2409343386
 H          3.6347776006       -1.9266989407       -2.9745057890
 O          2.0201727205       -0.5673500607       -1.9043709891
 C          1.0659566205        0.3390065293       -1.4577846292
 O         -0.0477572594        0.1797093095       -1.9924717595
 O          3.1687544102        2.2214655287        0.8078806515
 C          0.4806876704        2.3238295092        0.0409299010
 C         -0.2171465199        1.7220849190        1.2386852608
 C          0.0764014699        2.1708969888        2.5209986009
 C         -0.5257046304        1.5903761887        3.6229222507
 C         -1.4231026605        0.5512041588        3.4644822203
 C         -1.7246670903        0.0932469790        2.1848430602
 C         -1.1318476800        0.6889658192        1.0810272604
 H         -1.3462457698        0.3155382193        0.0938980703
 N         -2.6488167704       -0.9424648308        2.0135915698
 S         -2.6361506902       -1.9782806406        0.6994522596
 O         -3.3641017604       -3.1385957806        1.1742455093
 O         -1.2976890601       -2.2283560207        0.2203748199
 C         -3.6488928399       -1.1323086003       -0.4947470604
 C         -4.9767416699       -0.9453712602       -0.1588142207
 C         -5.8083710396       -0.2846086900       -1.0466309507
 C         -5.3005128893        0.1766892301       -2.2524184406
 C         -3.9677739793       -0.0221108499       -2.5749626403
 C         -3.1283374896       -0.6849349202       -1.6909349602
 H         -2.0824331095       -0.8347343603       -1.9114202801
 H         -3.5667978991        0.3377368202       -3.5093080102
 H         -5.9458596191        0.6941926803       -2.9447769806
 H         -6.8458231197       -0.1294226399       -0.7978993909
 H         -5.3310540501       -1.3283874003        0.7836370492
 H         -2.9497693506       -1.3986208209        2.8614595797
 H         -1.8859983107        0.0890692787        4.3231573801
 H         -0.2871912306        1.9437836985        4.6146816308
 H          0.8000272899        2.9624089587        2.6493180512
 H          1.1112766904        3.1464089690        0.4060899713
 C         -0.5055336693        2.8871571694       -0.9600901791
 C         -1.1700929992        4.1959581894       -0.6582044190
 C         -0.1369665490        4.1116772395       -1.7405379088
 H         -0.4559264788        4.1801450897       -2.7695561089
 H          0.8333028710        4.5494930994       -1.5555941386
 H         -2.2030590292        4.3245397796       -0.9420146392
 H         -0.9001046994        4.6933328493        0.2611027911
 H         -1.0885269793        2.1331803296       -1.4710728894
