  62
        -98.93875364
 C         -1.9581389350       -1.5470541056       -0.0375024743
 C         -1.7489168093       -0.2664804902       -0.6026324018
 C         -2.9255318468        0.6198524636       -0.6450566554
 C         -4.1075291236        0.1733025889       -0.1868597504
 C         -5.4353727455        0.8884114905       -0.1783887089
 C         -5.4428311744        2.3541310690        0.2803277676
 C         -4.3767335595        2.7155915022        1.3249121895
 H         -4.8574582864        3.2358194225        2.1556872135
 H         -3.9230251232        1.8088716659        1.7287656459
 C         -3.2838582475        3.6308886795        0.7679966033
 H         -3.7559773729        4.4010170306        0.1538462886
 H         -2.7919079263        4.1361190742        1.6027027951
 C         -2.1921111679        2.9389792874       -0.0485245825
 H         -1.5693330887        3.7182082423       -0.4929781460
 H         -1.5493466927        2.3491800289        0.6106077393
 C         -2.6846915091        2.0069939116       -1.1670034320
 H         -1.8816041404        1.9138956829       -1.9028093762
 H         -3.5664862832        2.4110761291       -1.6586363644
 H         -5.3253600812        3.0063298665       -0.5840728032
 H         -6.4348179031        2.5521210741        0.6898572975
 H         -6.0733931728        0.2948716175        0.4807160412
 H         -5.8635111547        0.8252368226       -1.1829172075
 O         -4.2647342337       -1.0776404275        0.3331843454
 C         -3.2018386495       -1.9581916410        0.4358731165
 O         -3.4869171190       -3.0550311715        0.9592610890
 O         -0.6414309143        0.1165449435       -1.0576254887
 C         -0.7977471858       -2.5197963062        0.0684935530
 C          0.3487523882       -1.8569624486        0.7912716399
 C          0.1027521104       -1.2420252400        2.0163370171
 C          1.1125747293       -0.5923500347        2.6990176821
 C          2.3936601445       -0.5420457527        2.1770196436
 C          2.6514897430       -1.1594740517        0.9617197479
 C          1.6356097088       -1.8180792842        0.2801377204
 H          1.8560393815       -2.2898844802       -0.6645515115
 N          3.9514626769       -1.1104137138        0.4209853759
 S          4.6380568959        0.4059685763        0.2226415477
 O          5.7124306601        0.2101051821       -0.7250535972
 O          5.0187083463        0.9276436472        1.5111842578
 C          3.3492427197        1.4061269369       -0.4938778327
 C          2.6265756560        2.2692191291        0.3031092760
 C          1.5925142715        2.9948266451       -0.2649836492
 C          1.2976410861        2.8407810372       -1.6095871914
 C          2.0314662170        1.9679312275       -2.3963061765
 C          3.0654756084        1.2391237420       -1.8344234990
 H          3.6637996972        0.5559086159       -2.4162374205
 H          1.7941668860        1.8474306443       -3.4411496291
 H          0.4888346390        3.4027543115       -2.0492576137
 H          1.0160389040        3.6720804474        0.3447890204
 H          2.8879089288        2.3617480477        1.3446589847
 H          4.0462451889       -1.6405911789       -0.4338371752
 H          3.1923592042       -0.0301681044        2.6888186611
 H          0.9021393663       -0.1171916027        3.6455151233
 H         -0.9001759522       -1.2724789645        2.4214550314
 H         -1.1551923216       -3.3591751076        0.6823794390
 C         -0.4359439750       -3.0418680500       -1.3066047852
 C          0.1985710718       -4.3908260455       -1.4610716560
 C         -1.2254285357       -4.1795888285       -1.8776698530
 H         -1.4594773118       -4.1679741856       -2.9316585875
 H         -2.0095781456       -4.5960412503       -1.2621445136
 H          0.9405570970       -4.5292779665       -2.2333275551
 H          0.3844509050       -4.9622024728       -0.5641395322
 H         -0.1373233672       -2.2516216693       -1.9863071391
