  62
        -98.94298492
 C         -2.6783854000       -1.1974044508        0.1317632095
 C         -2.7063916767       -0.2009817420       -0.8731625772
 C         -3.9098623006        0.6428436133       -0.9007098043
 C         -4.8962740277        0.4152806085       -0.0142475043
 C         -6.1490678091        1.2331992244        0.1033305229
 C         -5.9696657343        2.3821790994        1.1055922826
 C         -4.6997783227        3.2039288596        0.8836191265
 H         -4.6955489640        4.0027591992        1.6284144429
 H         -3.8283711256        2.5755339902        1.0818875821
 C         -4.5744686678        3.8128258252       -0.5199027251
 H         -5.5496019624        3.8216370260       -1.0082577641
 H         -4.2510745793        4.8513144065       -0.4229351543
 C         -3.5599737288        3.1133958666       -1.4266302206
 H         -3.3917314609        3.7477797916       -2.3009408579
 H         -2.6049729355        3.0167898206       -0.9037222092
 C         -3.9691882709        1.7269760882       -1.9396176130
 H         -3.2551873757        1.4361165480       -2.7156746316
 H         -4.9631903301        1.7784074279       -2.3885013560
 H         -6.8428660988        3.0340734652        1.0427967790
 H         -5.9325425918        1.9602444968        2.1126522457
 H         -6.9533837634        0.5824032245        0.4504398960
 H         -6.4119308532        1.6287603123       -0.8757574983
 O         -4.8420566791       -0.5683042748        0.9205890991
 C         -3.7305195720       -1.3876909940        1.0268886594
 O         -3.7971038133       -2.2323526600        1.9431877767
 O         -1.7778032307       -0.0245504080       -1.7040996894
 C         -1.4701483488       -2.1078770147        0.2571429694
 C         -0.2256408585       -1.2822469883        0.4772526235
 C         -0.2224498399       -0.3376570156        1.5008062103
 C          0.8937891408        0.4381110932        1.7444563645
 C          2.0347831247        0.2901966059        0.9744821261
 C          2.0486557595       -0.6574474975       -0.0383661399
 C          0.9247407849       -1.4400054932       -0.2780061502
 H          0.9527774331       -2.1705581249       -1.0714169327
 N          3.1988787718       -0.8101098508       -0.8275908903
 S          4.6987229584       -0.8973363131       -0.0853885944
 O          5.5395032807       -1.6114224040       -1.0213072952
 O          4.6002272647       -1.4550972468        1.2433798237
 C          5.2380022654        0.7974142403        0.0002507619
 C          5.6354200910        1.3330015977        1.2095822451
 C          6.0640454943        2.6507017498        1.2508258789
 C          6.0886699494        3.4048872120        0.0878090746
 C          5.6886578990        2.8512834478       -1.1193859483
 C          5.2600088251        1.5345050776       -1.1674571653
 H          4.9441510072        1.0679880443       -2.0856436432
 H          5.7089282896        3.4411310384       -2.0216733594
 H          6.4218232706        4.4301758412        0.1221462596
 H          6.3755417760        3.0828533865        2.1882724004
 H          5.5947863519        0.7106421717        2.0894835830
 H          3.1091416036       -1.4962540223       -1.5624095360
 H          2.9075665238        0.8956262508        1.1562871415
 H          0.8766698820        1.1687949008        2.5390923510
 H         -1.1140745617       -0.2205005470        2.1025946698
 H         -1.6374624173       -2.7141050297        1.1596128807
 C         -1.3913059733       -3.0321549984       -0.9400001941
 C         -0.7325523221       -4.3725726276       -0.8170354846
 C         -2.2226811049       -4.2781462684       -0.9458394989
 H         -2.6818299848       -4.5877733956       -1.8726659255
 H         -2.8277677142       -4.4737571626       -0.0724263621
 H         -0.1704518026       -4.7525822281       -1.6572129548
 H         -0.3224619664       -4.6423751903        0.1447150773
 H         -1.2921514045       -2.4943822242       -1.8761140966
