  62
        -98.94463620
 C          1.9759643768        0.7736818378        0.5678855839
 C          1.9914817241        0.0842126102       -0.6682493915
 C          2.1358465184       -1.3731338329       -0.5819034603
 C          2.1732709805       -1.9711681900        0.6221991821
 C          2.2773829121       -3.4514806938        0.8730622318
 C          3.7127211526       -3.9944104247        0.8298214876
 C          4.3374277565       -4.0742622770       -0.5636757052
 H          5.2486035216       -4.6685721501       -0.4717857038
 H          3.6630340760       -4.6110072067       -1.2314411602
 C          4.6955370623       -2.7131005327       -1.1761717028
 H          4.7152814690       -1.9542120223       -0.3907082083
 H          5.6995107115       -2.7589568289       -1.6038193747
 C          3.7513209568       -2.2493920418       -2.2854794651
 H          4.0757873417       -1.2614211286       -2.6214203292
 H          3.8183025888       -2.9334891078       -3.1341913435
 C          2.2809788745       -2.1435756397       -1.8590741506
 H          1.8436835522       -3.1365135546       -1.7549734509
 H          1.7317318694       -1.6014457039       -2.6328395487
 H          4.3384729669       -3.3739148135        1.4753497613
 H          3.6919021562       -5.0008491455        1.2540781655
 H          1.6589145164       -3.9864739468        0.1515580304
 H          1.8712500633       -3.6247961811        1.8722100140
 O          2.1029348228       -1.2758737803        1.7901028047
 C          2.0144259697        0.1068291813        1.7906308020
 O          1.9798088333        0.6198479864        2.9295932138
 O          1.8965285673        0.6556317182       -1.7862648781
 C          1.8192127238        2.2835317122        0.5858628624
 C          0.5308082476        2.6560802036       -0.1080637990
 C          0.4233974323        3.6906990106       -1.0279087184
 C         -0.7862627471        3.9487403720       -1.6499260181
 C         -1.9032731986        3.1817031979       -1.3770931787
 C         -1.8106200894        2.1574934655       -0.4402940678
 C         -0.6054629337        1.9167873567        0.1962873884
 H         -0.5431396005        1.1164449552        0.9207567763
 N         -2.9334761554        1.3767798323       -0.1123319196
 S         -2.6944344508       -0.2365690641        0.3240361973
 O         -2.3280723366       -0.2912133216        1.7183805345
 O         -1.7984463778       -0.8890154808       -0.6042453425
 C         -4.3559130461       -0.8541679854        0.1229130131
 C         -4.6884151846       -1.5639854538       -1.0151109005
 C         -5.9935053040       -2.0042051399       -1.1732238965
 C         -6.9390835867       -1.7253115737       -0.1980498071
 C         -6.5901624522       -1.0120968571        0.9394500512
 C         -5.2869843361       -0.5708531376        1.1046231075
 H         -4.9655537541       -0.0218871113        1.9743375846
 H         -7.3271351093       -0.7990381819        1.6968008735
 H         -7.9538921816       -2.0679960346       -0.3240036278
 H         -6.2663849916       -2.5614518022       -2.0548487895
 H         -3.9172297894       -1.7608170335       -1.7426313004
 H         -3.6828777873        1.4687761925       -0.7851013978
 H         -2.8392472903        3.3706646421       -1.8802375464
 H         -0.8550547485        4.7495110949       -2.3705532272
 H          1.2892721095        4.2852867470       -1.2688548720
 H          1.7336596228        2.5693350639        1.6451466372
 C          3.0426854250        2.9510549368       -0.0068014498
 C          3.4625115146        4.3120898043        0.4585269907
 C          4.2641813726        3.1071152937        0.8464893103
 H          5.2326532337        2.9606547442        0.3924028323
 H          4.2020510363        2.7544161985        1.8660647473
 H          3.8858190996        4.9956931874       -0.2618075909
 H          2.8626760887        4.7863714172        1.2205211456
 H          3.1893923232        2.6944799885       -1.0496661510
