  62
        -98.94666887
 C          1.1814557336        1.2702168331        0.0835885094
 C          1.5730870737        0.2815227244        1.0198124247
 C          2.4232501218       -0.7973104555        0.5036615858
 C          2.7173796469       -0.8278608524       -0.8089415435
 C          3.6401235213       -1.8178919027       -1.4579518497
 C          5.0832106717       -1.2937234581       -1.4764180007
 C          5.5714710606       -0.7821387297       -0.1209709116
 H          6.6115135746       -0.4730450823       -0.2457413362
 H          5.0024574526        0.1100065098        0.1503392764
 C          5.4761993040       -1.8082028582        1.0170686305
 H          5.3761216326       -2.8124854170        0.6039647688
 H          6.4069451525       -1.7850927243        1.5878138950
 C          4.3398148557       -1.5514644350        2.0089022039
 H          4.3872406045       -0.5171054673        2.3588125489
 H          4.4945849567       -2.1971725118        2.8774553979
 C          2.9230954292       -1.8196408447        1.4846154432
 H          2.8745515485       -2.8221427600        1.0558257684
 H          2.2391812308       -1.7768775388        2.3370506498
 H          5.7375900726       -2.0964744457       -1.8212079461
 H          5.1454271080       -0.4730248391       -2.1947093366
 H          3.5986618841       -2.7612445719       -0.9168122880
 H          3.3107654097       -1.9782350215       -2.4859320543
 O          2.2360013552        0.0782260093       -1.6947369976
 C          1.4595170205        1.1504067288       -1.2785336796
 O          1.0924718889        1.8976171330       -2.2035435175
 O          1.2335866713        0.3077888787        2.2340953227
 C          0.3650035936        2.4496572131        0.5890552782
 C         -1.0704232817        2.2402487761        0.1782558960
 C         -1.6799417354        2.9175809401       -0.8691402928
 C         -2.9845991919        2.6217335942       -1.2283882460
 C         -3.7070883121        1.6554294018       -0.5515748444
 C         -3.1038638757        0.9738261561        0.4977056113
 C         -1.7978030335        1.2670587604        0.8543850371
 H         -1.3226876933        0.7265039568        1.6632166799
 N         -3.8298226469       -0.0308288760        1.1811790713
 S         -4.0999116513       -1.4290016707        0.3009579588
 O         -4.8954149561       -1.1014565630       -0.8536058398
 O         -4.6731040224       -2.3756133976        1.2296043467
 C         -2.4804324669       -1.9794933226       -0.2066194227
 C         -1.8409767662       -2.9506609550        0.5373128810
 C         -0.5697162187       -3.3531756822        0.1628912304
 C          0.0409589192       -2.7714143623       -0.9369873470
 C         -0.6070868774       -1.7846868221       -1.6635555230
 C         -1.8809638497       -1.3817582340       -1.2974258603
 H         -2.4142507358       -0.6227044703       -1.8468371659
 H         -0.1227078886       -1.3196643384       -2.5082349060
 H          1.0277479537       -3.0877175517       -1.2340995998
 H         -0.0588605406       -4.1159736267        0.7280468730
 H         -2.3556897252       -3.3810723017        1.3814495967
 H         -3.4070977398       -0.2835495871        2.0644125565
 H         -4.7167232793        1.4026004573       -0.8314797261
 H         -3.4451283316        3.1519713390       -2.0482398061
 H         -1.1269402224        3.6630229723       -1.4160729179
 H          0.4101840601        2.3822974916        1.6850583675
 C          0.9428924117        3.7806156079        0.1607651963
 C          0.5020871454        5.0284433487        0.8640122898
 C          1.8865294318        4.4968481365        1.0780116536
 H          2.7181739254        5.0324346510        0.6452661458
 H          2.1141390789        4.0319468306        2.0263155480
 H          0.3816035942        5.9318486379        0.2861428944
 H         -0.2120996672        4.9217567032        1.6665410770
 H          1.1453626421        3.8404873319       -0.9011499020
