  62
        -98.94031795
 C          2.4539853473        1.1644346530        0.0742183543
 C          3.3485504746        0.4575432849        0.9173833470
 C          4.1520140178       -0.5897260371        0.2775696191
 C          3.9998212136       -0.8363549409       -1.0360931238
 C          4.7591462448       -1.8562528806       -1.8405425918
 C          4.1726189098       -3.2725153746       -1.7631774310
 C          4.3872197564       -3.9932218216       -0.4315909580
 H          4.1219667206       -5.0407946931       -0.5872321222
 H          5.4448314897       -3.9610436390       -0.1681898592
 C          3.5492530824       -3.4403965875        0.7299556724
 H          3.0910912086       -4.2684288386        1.2758917389
 H          2.7340036140       -2.8305607294        0.3327275323
 C          4.3390507892       -2.6119086138        1.7436317607
 H          5.0732452987       -3.2475696627        2.2434420962
 H          3.6432432336       -2.2427745685        2.5018918933
 C          5.0678761676       -1.4031706488        1.1415320122
 H          5.4079340676       -0.7653532412        1.9611489803
 H          5.9359254093       -1.7332222930        0.5712843869
 H          3.1033616800       -3.2198917538       -1.9811170215
 H          4.6437487985       -3.8639478636       -2.5515034650
 H          4.7193878268       -1.5239896330       -2.8800894229
 H          5.8012233792       -1.8742193427       -1.5203352696
 O          3.1149547827       -0.1534365088       -1.8073993745
 C          2.2987952675        0.8385261782       -1.2745975524
 O          1.5060135440        1.3291691791       -2.0978392970
 O          3.4645014625        0.6869749927        2.1515626685
 C          1.5834078451        2.2328440147        0.7110004903
 C          0.1397482109        2.0178673591        0.3293797673
 C         -0.6434824216        2.9710656491       -0.3061352435
 C         -1.9614046871        2.6929813107       -0.6255515900
 C         -2.5247312617        1.4676886186       -0.3227282437
 C         -1.7526794685        0.5079910415        0.3195727712
 C         -0.4366372232        0.7933609978        0.6471947122
 H          0.1661200886        0.0441055478        1.1476934425
 N         -2.3074200612       -0.7492080378        0.6141607425
 S         -3.8080750818       -0.8161859343        1.3612961760
 O         -4.0378508733        0.3422303284        2.1932646338
 O         -3.8388706451       -2.1005568633        2.0266633416
 C         -4.9626231056       -0.8371087928        0.0066286718
 C         -5.9824636736        0.0927158074       -0.0450208951
 C         -6.8741094400        0.0506093367       -1.1056705181
 C         -6.7313012790       -0.9157771483       -2.0894390507
 C         -5.7032219500       -1.8443597266       -2.0211161192
 C         -4.8093850166       -1.8085573128       -0.9629566133
 H         -3.9988725655       -2.5124829044       -0.8719882289
 H         -5.5948533690       -2.5941950447       -2.7882193569
 H         -7.4250183567       -0.9458251370       -2.9147258438
 H         -7.6740854574        0.7712763697       -1.1606938289
 H         -6.0505649192        0.8295669645        0.7394112796
 H         -1.6604209425       -1.3900371203        1.0497193142
 H         -3.5478439120        1.2466767743       -0.5790390563
 H         -2.5568423735        3.4405820964       -1.1270353291
 H         -0.2170818669        3.9240142672       -0.5721147461
 H          1.6731953980        2.0427559537        1.7945636265
 C          2.0656874510        3.6579681109        0.4878400334
 C          3.5135353789        3.9524568931        0.2359072415
 C          2.5063529414        4.1610444743       -0.8529083756
 H          2.2532060596        5.1750810713       -1.1261704970
 H          2.4855735495        3.4677557376       -1.6784830066
 H          3.9506344712        4.8189334257        0.7091479061
 H          4.1883044628        3.1125204473        0.1543696119
 H          1.5383067165        4.3641023319        1.1222883647
