  62
        -98.94796771
 C         -2.3530827136       -0.1858159552        0.1456442991
 C         -1.7630882871        0.4184763980       -0.9906660308
 C         -1.6345209640        1.8797831551       -0.9437864824
 C         -1.9588692752        2.5411155098        0.1815620396
 C         -1.8662414334        4.0276576711        0.3942180786
 C         -0.4555012311        4.5121285362        0.7570214534
 C          0.5356712138        4.5596053563       -0.4066311754
 H          0.0845966480        5.0900220702       -1.2465427497
 H          1.3930215338        5.1464236189       -0.0706398553
 C          1.0359705559        3.1839056922       -0.8689479228
 H          2.1186373521        3.2227393778       -1.0169019643
 H          0.8544036861        2.4462810106       -0.0835379864
 C          0.4190645777        2.6908399277       -2.1770547916
 H          0.7084454068        3.3595549589       -2.9913154293
 H          0.8275098005        1.7015479409       -2.3912888199
 C         -1.1107665903        2.5842295335       -2.1607811595
 H         -1.5542234475        3.5777949663       -2.2309749792
 H         -1.4187451580        2.0019763157       -3.0332051054
 H         -0.0559980357        3.8664834621        1.5436227642
 H         -0.5517672856        5.5202499598        1.1677820707
 H         -2.2150669663        4.5509132111       -0.4969670768
 H         -2.5373039124        4.2652927484        1.2226273731
 O         -2.4410282443        1.9132542669        1.2869133906
 C         -2.6442017099        0.5453462568        1.2968421696
 O         -3.0905932590        0.0988246270        2.3765843164
 H         -0.6594638935       -1.2165494254        1.9659800417
 C         -0.3016338433       -1.8979171401        1.2038585598
 C         -1.1739720171       -2.3174684446        0.2057656892
 C         -0.7008530182       -3.1961929360       -0.7588714395
 C          0.6224065380       -3.6071773628       -0.7451821416
 C          1.5038129879       -3.1275859596        0.2073630993
 C          1.0302408178       -2.2677735307        1.1893941222
 N          1.9598199582       -1.6780456354        2.1010410460
 S          2.2803424741       -0.0867627518        1.6205690010
 O          3.2613395627        0.4183825533        2.5575993699
 O          1.0661690640        0.6958222936        1.5190160714
 C          3.0127391906       -0.3282541556        0.0210560325
 C          4.3817603717       -0.4898861983       -0.0644092298
 C          4.9511339117       -0.7333245664       -1.3038398752
 C          4.1443171293       -0.8182100705       -2.4288647250
 C          2.7713775077       -0.6568176709       -2.3247743179
 C          2.1949855301       -0.4100394725       -1.0885777659
 H          1.1288102684       -0.2833281713       -0.9777139883
 H          2.1367133901       -0.7265574615       -3.1939565699
 H          4.5862246419       -1.0116928090       -3.3935370424
 H          6.0185355114       -0.8590207359       -1.3882290599
 H          4.9650888442       -0.4148245358        0.8385575720
 H          1.6069273341       -1.6465511537        3.0492203592
 H          2.5468120770       -3.3987742287        0.1988867345
 H          0.9776909698       -4.2846782595       -1.5058889133
 H         -1.3632703656       -3.5409816481       -1.5356489392
 C         -2.5483210383       -1.6949573256        0.2020740767
 H         -3.0253795756       -1.9030670931        1.1705674803
 C         -3.4494604132       -2.1819687499       -0.9102949550
 C         -4.1714220587       -3.4870041383       -0.7650284522
 C         -4.9312914669       -2.1976217969       -0.6910165355
 H         -5.5764511522       -1.9287518943       -1.5137005167
 H         -5.2953707075       -1.8706737407        0.2724615116
 H         -4.2994953463       -4.1061973394       -1.6396583324
 H         -4.0237168047       -4.0403237360        0.1501264690
 H         -3.0941101940       -1.8982050869       -1.8932738567
 O         -1.3728759316       -0.2222413490       -2.0013023394
