  62
        -98.94128607
 C         -2.1639945240       -0.7794696281       -0.3321689255
 C         -3.1337574520       -0.6098946838        0.6920669364
 C         -3.7206532323        0.7267514334        0.8222572677
 C         -3.2994290170        1.7181195642        0.0167305039
 C         -3.7710461981        3.1465334046        0.0451803999
 C         -5.0662433049        3.3934685976       -0.7406340825
 C         -6.3357325473        2.8412685353       -0.0911776947
 H         -6.3949658335        3.1894015958        0.9404597557
 H         -7.1831372310        3.2704211112       -0.6293645997
 C         -6.4514129295        1.3110118563       -0.1280060565
 H         -7.4571406952        1.0294677164       -0.4477822210
 H         -5.7559379413        0.9111389819       -0.8694615148
 C         -6.1936563938        0.6229256017        1.2125765573
 H         -6.9635757302        0.9163498725        1.9294875788
 H         -6.2664278729       -0.4572330434        1.0629998282
 C         -4.8186189911        0.9239679555        1.8234658515
 H         -4.7952145631        1.9400875183        2.2170166428
 H         -4.6468037750        0.2258084249        2.6463181252
 H         -4.9536662549        2.9690226905       -1.7409050198
 H         -5.1794045469        4.4745908268       -0.8488743669
 H         -3.9036430558        3.4664381925        1.0792358927
 H         -2.9747070049        3.7446656987       -0.4033424505
 O         -2.3494723733        1.5262823129       -0.9340216664
 C         -1.7693137709        0.2834120546       -1.1447324431
 O         -0.9368646385        0.2840230354       -2.0752350621
 H          0.7150570554       -0.8717489992       -1.1628940967
 C          0.8552528182       -1.4837053154       -0.2839415271
 C         -0.2118958866       -2.2224921286        0.2072320797
 C         -0.0198266353       -2.9799408848        1.3566047216
 C          1.2089433835       -2.9961620988        1.9937854672
 C          2.2690409140       -2.2550497203        1.5027622486
 C          2.0823219053       -1.4864378097        0.3617068155
 N          3.1535394610       -0.7075345473       -0.1428744469
 S          3.6008922628        0.6088856766        0.8210889517
 O          3.8616258440        0.1346655349        2.1560350145
 O          2.6262281577        1.6744498052        0.7010469809
 C          5.1285884675        1.0835568440        0.0370299213
 C          5.1393691509        2.1365606917       -0.8565296269
 C          6.3299098613        2.4720574794       -1.4824877057
 C          7.4811066748        1.7495524243       -1.2081966334
 C          7.4536218660        0.6934298299       -0.3093823544
 C          6.2671364321        0.3540752920        0.3204329391
 H          6.1988964403       -0.4527750403        1.0308499992
 H          8.3512994409        0.1351349228       -0.0981395160
 H          8.4056644254        2.0128303967       -1.6972636606
 H          6.3538250635        3.2937739633       -2.1801665045
 H          4.2215108526        2.6743527932       -1.0342656050
 H          2.9164992885       -0.3355374947       -1.0552461982
 H          3.2228896631       -2.2416877985        2.0030317805
 H          1.3420794987       -3.5898201153        2.8855334773
 H         -0.8488809561       -3.5426857259        1.7608741410
 C         -1.5604682502       -2.1683951164       -0.4707322829
 H         -2.2383754233       -2.8300480320        0.0851567617
 C         -1.4812320489       -2.6572325846       -1.9033774126
 C         -1.3569440733       -4.1281473133       -2.1602574735
 C         -2.6352381194       -3.4160161346       -2.4836347919
 H         -2.8894127360       -3.2518588347       -3.5200156665
 H         -3.4908215983       -3.5882864218       -1.8469432589
 H         -0.7305906808       -4.4567245520       -2.9751277660
 H         -1.3454214908       -4.7846935680       -1.3035097383
 H         -0.9502801545       -1.9827836802       -2.5621524666
 O         -3.4942042892       -1.5404049179        1.4610454521
