  62
        -98.93623180
 C         -1.9766483907       -1.0401743988        0.0281286394
 C         -2.2707334582       -0.0716159757        1.0145829783
 C         -2.5180817830        1.2939845029        0.5317509501
 C         -2.4227256030        1.5482175580       -0.7862337039
 C         -2.7021387202        2.8717292504       -1.4404111318
 C         -4.2233093115        3.1059436502       -1.5371869072
 C         -4.7351911801        4.2786060107       -0.7005523099
 H         -4.4717550589        5.2128931878       -1.2004433286
 H         -5.8248210833        4.2120700984       -0.6764728639
 C         -4.2085233109        4.3515334097        0.7357285904
 H         -4.8449430891        5.0575797535        1.2733086451
 H         -3.2027311622        4.7743416969        0.7376050727
 C         -4.1827019828        3.0259700291        1.5074412414
 H         -4.4817291432        3.2264799047        2.5382755449
 H         -4.9097858685        2.3259706111        1.0955663712
 C         -2.8019116774        2.3459623229        1.5685599694
 H         -2.0146755662        3.1054212760        1.5371263863
 H         -2.7105790242        1.8238378591        2.5261108349
 H         -4.7294472103        2.1886670024       -1.2295310124
 H         -4.4977084133        3.2826329589       -2.5781445217
 H         -2.2241002319        3.6664295986       -0.8716783476
 H         -2.2558321502        2.8400707065       -2.4345353356
 O         -2.1310004053        0.5917907444       -1.7050701712
 C         -1.8802923419       -0.7171843813       -1.3248876905
 O         -1.5984061015       -1.4816712506       -2.2676372701
 H          0.4690799225       -0.8315824449        0.3891269971
 C          0.7351242842       -1.8373612949        0.0975229187
 C         -0.2424769158       -2.8235703307        0.0675264229
 C          0.1297882642       -4.1130543144       -0.2913475451
 C          1.4444614003       -4.3953664559       -0.6212450831
 C          2.4091635199       -3.4058360428       -0.6086570942
 C          2.0454153635       -2.1094364176       -0.2564943006
 N          2.9907336359       -1.0720894621       -0.2961750505
 S          2.6927247627        0.4177691494        0.4189742280
 O          2.4414132772        0.2634919734        1.8362053253
 O          1.6852431853        1.1152861844       -0.3413700801
 C          4.2797659656        1.1897908488        0.1653512039
 C          5.2014913129        1.2126063816        1.1948119152
 C          6.4410160070        1.7921290891        0.9725398217
 C          6.7370407950        2.3339756071       -0.2690681680
 C          5.8012024322        2.3050853898       -1.2925883631
 C          4.5600415829        1.7279026125       -1.0765249461
 H          3.7970886459        1.6894732141       -1.8368205731
 H          6.0329815413        2.7298464379       -2.2559546921
 H          7.7019692926        2.7843980108       -0.4398629519
 H          7.1690058949        1.8190406092        1.7671372740
 H          4.9226033271        0.7874821553        2.1454984905
 H          3.9453873746       -1.3796788106       -0.1787765057
 H          3.4304144599       -3.6255405471       -0.8783829765
 H          1.7205679968       -5.4020229784       -0.8962035672
 H         -0.6103528692       -4.8961978515       -0.3145218187
 C         -1.6548229209       -2.4576137545        0.4591584261
 H         -1.7100083617       -2.4486180585        1.5592304308
 C         -2.6901332457       -3.4277621003       -0.0735954436
 C         -3.0887104414       -4.6325828336        0.7239531985
 C         -4.0353437955       -3.4798372266        0.5848047699
 H         -4.9099273904       -3.5977881199       -0.0369924390
 H         -4.1903816597       -2.8375547351        1.4397153644
 H         -2.6116211749       -4.7796402254        1.6812310526
 H         -3.3173123716       -5.5464883472        0.1966341530
 H         -2.6572219519       -3.5128866801       -1.1539459096
 O         -2.3201276821       -0.3387700249        2.2482919322
