  62
        -98.93052090
 C         -2.3751226809       -1.3525189941       -0.3869325873
 C         -2.3387317036       -0.0418386962       -0.9202657518
 C         -3.5745217471        0.7441089774       -0.7798252375
 C         -4.6507188674        0.2038376910       -0.1821301842
 C         -5.9999254371        0.8469758785        0.0002217301
 C         -6.0460577322        2.0802853370        0.9229733073
 C         -5.9189805742        3.4224707127        0.1917246008
 H         -6.2449872342        3.2919298041       -0.8408882848
 H         -6.6061577548        4.1373172894        0.6490122941
 C         -4.5285706552        4.0647416440        0.2117897858
 H         -4.5173840972        4.8600896649       -0.5366107951
 H         -4.3643196017        4.5291169997        1.1868704711
 C         -3.3528308639        3.1228124098       -0.0493615097
 H         -2.4587738322        3.7296241387       -0.2062492760
 H         -3.1608943259        2.5185147556        0.8408299173
 C         -3.5443886153        2.1708410101       -1.2460011290
 H         -4.4547071674        2.4155493946       -1.7909696963
 H         -2.6980698105        2.2583947510       -1.9299432288
 H         -5.2774817592        1.9891469554        1.6902776117
 H         -7.0120364219        2.0594391425        1.4300214059
 H         -6.3968960624        1.1142642899       -0.9817187666
 H         -6.6393591030        0.0662197478        0.4171183304
 O         -4.6467587878       -1.0641691127        0.3127193639
 C         -3.5171558108       -1.8582895845        0.2414199937
 O         -3.6535170603       -2.9864545531        0.7560385731
 H          0.7324483354       -0.3382397390       -0.6668257177
 C          0.7520599245       -0.8098062364        0.3033805058
 C         -0.1561988587       -1.8176827498        0.5918288098
 C         -0.1394867097       -2.3862750019        1.8615115985
 C          0.7595310845       -1.9522402025        2.8195909124
 C          1.6545086858       -0.9371956807        2.5334763655
 C          1.6446417314       -0.3631782386        1.2691217985
 N          2.5328387559        0.6856328655        0.9895421307
 S          4.1730414458        0.4762423582        1.3155953217
 O          4.4300512327       -0.9106677918        1.6179111677
 O          4.5576121029        1.4240614743        2.3349345303
 C          4.9352407238        0.9215797607       -0.2335666628
 C          4.9201426033       -0.0083919588       -1.2559306101
 C          5.4856321304        0.3283481822       -2.4752031951
 C          6.0505197979        1.5831660875       -2.6510440328
 C          6.0559587227        2.5057163880       -1.6158964101
 C          5.4917096919        2.1755359203       -0.3934914616
 H          5.4769881098        2.8570567649        0.4413371891
 H          6.4969268362        3.4793573221       -1.7565854869
 H          6.4902635001        1.8418613495       -3.6013265898
 H          5.4832107323       -0.3869163378       -3.2819739940
 H          4.4766665587       -0.9747001457       -1.0739588783
 H          2.3697763943        1.1160092385        0.0910037027
 H          2.3618954843       -0.5822079514        3.2668927277
 H          0.7597545845       -2.4048413511        3.8000263369
 H         -0.8508957942       -3.1662008688        2.0952052304
 C         -1.1709054049       -2.2817895083       -0.4262259296
 H         -1.5433670077       -3.2623118146       -0.1016605152
 C         -0.5892076490       -2.4242826828       -1.8185540391
 C          0.3750750318       -3.5381266031       -2.0910872856
 C         -1.0064246735       -3.5835805893       -2.6701522102
 H         -1.1273237733       -3.4257997504       -3.7313979221
 H         -1.7138419151       -4.2841071184       -2.2505382956
 H          1.2046502881       -3.3517368122       -2.7556671415
 H          0.6063718028       -4.2075761846       -1.2760699882
 H         -0.4253930326       -1.4795799888       -2.3194922859
 O         -1.3419748183        0.4635608738       -1.5006226201
