  62
        -98.94361729
 C         -1.7980028469        0.8752051883       -0.8186795584
 C         -1.9938793075        0.3997813888        0.5004311590
 C         -3.3893582598        0.3575514957        0.9614789015
 C         -4.3689360549        0.7802135658        0.1415731507
 C         -5.8341745963        0.7394650153        0.4640418094
 C         -6.4693415375       -0.5764958936       -0.0066508291
 C         -5.6947200592       -1.8236282178        0.4198132941
 H         -4.7252610819       -1.8315169034       -0.0838460961
 H         -6.2511961772       -2.6910675568        0.0580830050
 C         -5.4783468430       -1.9501675939        1.9342728094
 H         -5.6942896349       -2.9779795934        2.2335818075
 H         -6.1802199917       -1.3047664909        2.4636764083
 C         -4.0542884144       -1.6401964133        2.3995944105
 H         -3.3404237644       -2.2160398341        1.8049659969
 H         -3.9571548887       -1.9701712066        3.4373035963
 C         -3.6420980813       -0.1636144160        2.3481081838
 H         -2.6919505050       -0.0657279483        2.8809981154
 H         -4.3893443443        0.4456259205        2.8604373225
 H         -6.5236533974       -0.5639310234       -1.0977803350
 H         -7.4876797420       -0.6273649459        0.3830363228
 H         -5.9683716808        0.8562718410        1.5375765383
 H         -6.3222879113        1.5710688528       -0.0469522366
 O         -4.1372649519        1.2527107811       -1.1104932829
 C         -2.8525366964        1.2970786277       -1.6271877215
 O         -2.7815046572        1.7227848907       -2.7983613642
 H          2.0960956745        0.1738161788       -0.4910974218
 C          1.5104156555       -0.6531535417       -0.8536491696
 C          0.2352945730       -0.4379887243       -1.3501095193
 C         -0.4866393811       -1.5285093266       -1.8293875705
 C          0.0496530920       -2.8004814979       -1.7939810250
 C          1.3202903014       -3.0125809702       -1.2877263382
 C          2.0531522168       -1.9310026439       -0.8154464175
 N          3.3259368491       -2.1200966497       -0.2652849542
 S          4.5098370401       -0.9499482983       -0.3571123018
 O          4.5076631037       -0.2831997180       -1.6386173982
 O          5.7304127889       -1.6488440403       -0.0143274424
 C          4.1192013216        0.2078419570        0.9380864284
 C          4.3905540112        1.5464861832        0.7342982020
 C          4.1142036073        2.4498949993        1.7482698539
 C          3.5755489321        2.0003073108        2.9438165697
 C          3.3138370310        0.6521987313        3.1344895854
 C          3.5902246934       -0.2564997381        2.1256285494
 H          3.3895503904       -1.3085578845        2.2402799042
 H          2.8898601793        0.3066875722        4.0636004506
 H          3.3561309473        2.7050270681        3.7304717621
 H          4.3164620592        3.4991614769        1.6018182289
 H          4.7994940002        1.8529818818       -0.2157051591
 H          3.6941839268       -3.0575887613       -0.3178523498
 H          1.7385080938       -4.0070655320       -1.2543000415
 H         -0.5243467053       -3.6363808208       -2.1652634577
 H         -1.4797599711       -1.3631367817       -2.2258114349
 C         -0.3948447170        0.9327434444       -1.3948016302
 H         -0.5078014028        1.2217407223       -2.4502850825
 C          0.4149558257        1.9961068584       -0.6822521840
 C          1.5356228565        2.6945023397       -1.3899533975
 C          0.2597313006        3.4256509969       -1.1019429598
 H          0.2639419378        4.1903721216       -0.3400999647
 H         -0.4122598615        3.6304354067       -1.9229291501
 H          1.7417077089        2.4060250439       -2.4098620438
 H          2.4159067733        2.9570575803       -0.8231483520
 H          0.5262960194        1.7943642587        0.3772331038
 O         -1.0564161676        0.0286974453        1.2527339593
