  62
        -98.93390514
 C          2.3229254299        1.4478658210       -0.0737129188
 C          3.1941455599        0.9349202208        0.9225409910
 C          4.1862239903       -0.0591829786        0.4892118807
 C          4.2124728606       -0.4323746181       -0.8026903095
 C          5.1108208909       -1.4822377275       -1.3923408799
 C          4.5889613214       -2.8881444578       -1.0333173606
 C          5.5176631515       -3.6906212879       -0.1217213308
 H          4.9579928218       -4.5598741083        0.2302565087
 H          6.3613758617       -4.0576614674       -0.7099146309
 C          6.0811537512       -2.9369445283        1.0867766296
 H          6.9177483610       -2.3114658079        0.7718595099
 H          6.4916529413       -3.6873212385        1.7656900993
 C          5.0819763008       -2.0669878490        1.8605259099
 H          4.0627195809       -2.4249496292        1.7117909896
 H          5.3000357407       -2.1654365694        2.9258989398
 C          5.1488691704       -0.5648818788        1.5278517505
 H          4.9074960301        0.0034816607        2.4309126808
 H          6.1695310003       -0.3013262083        1.2365970907
 H          3.6118380313       -2.7806561684       -0.5567049006
 H          4.4285661416       -3.4615425275       -1.9477409108
 H          6.1253481809       -1.3453896573       -1.0243699297
 H          5.1088844110       -1.3411692070       -2.4734092698
 O          3.3524416805        0.0656246321       -1.7264819794
 C          2.3910841501        1.0141937516       -1.3975023590
 O          1.6909029001        1.3641352118       -2.3666592789
 O          3.1515084297        1.3087178803        2.1254245512
 C          1.3308809795        2.5089520105        0.3733385515
 C         -0.0206209203        1.9113319799        0.6693902011
 C         -0.6222511605        2.0823872292        1.9105066812
 C         -1.8608555904        1.5238809287        2.1750492108
 C         -2.5268286300        0.7922862489        1.2080884004
 C         -1.9301960399        0.6076262096       -0.0325487296
 C         -0.6855042600        1.1628997002       -0.2927727093
 H         -0.2229680099        1.0150251507       -1.2578089593
 N         -2.6021148195       -0.1177329001       -1.0317511700
 S         -3.2507093891       -1.6123702405       -0.6304674007
 O         -2.5072670090       -2.2446304008        0.4356395590
 O         -3.3312536487       -2.3404933200       -1.8778274911
 C         -4.8988364193       -1.2200334713       -0.0809717207
 C         -5.3445263692       -1.6739225020        1.1449563190
 C         -6.6338297394       -1.3606328426        1.5471028190
 C         -7.4500457895       -0.6039734425        0.7204247693
 C         -6.9882024396       -0.1582928818       -0.5092314405
 C         -5.7011486094       -0.4691164812       -0.9178417305
 H         -5.3051122394       -0.1447451206       -1.8656674503
 H         -7.6255134797        0.4301427583       -1.1494496203
 H         -8.4519575896       -0.3597873729        1.0363291393
 H         -6.9945700294       -1.7066010431        2.5024175388
 H         -4.6717425091       -2.2532434620        1.7571877688
 H         -2.0884861894       -0.1700280096       -1.9001106100
 H         -3.4923677499        0.3571966185        1.4075888301
 H         -2.3151581705        1.6622031981        3.1441675508
 H         -0.1047407608        2.6439148390        2.6744559015
 H          1.7412902193        2.8788456202        1.3260775117
 C          1.2668961692        3.6955502809       -0.5806908579
 C          0.0613258192        4.0582183209       -1.3902623379
 C          0.4527659888        4.9022977705       -0.2171521775
 H          0.8691451685        5.8820675507       -0.3948866370
 H         -0.1595108113        4.8341783799        0.6694721824
 H          0.2283625291        4.4385559814       -2.3865813777
 H         -0.8208736506        3.4442085506       -1.3036022383
 H          2.2275946892        3.8827259114       -1.0504267678
