  62
        -98.94062501
 C         -1.7371003187       -0.3611027698        0.4591457791
 C         -2.9257879553       -0.5407738228        1.2113714069
 C         -4.1598868446       -0.7414977396        0.4408346193
 C         -4.1033562050       -0.7249657616       -0.9031798485
 C         -5.2888382456       -0.8624152358       -1.8131042936
 C         -5.8873303663        0.5085787164       -2.1574645880
 C         -6.1295862997        1.4005828623       -0.9398499562
 H         -5.1675583055        1.6646098899       -0.4945312794
 H         -6.5810138015        2.3275540458       -1.3001679386
 C         -7.0308725225        0.7771925597        0.1351659119
 H         -7.7554060458        1.5261116565        0.4619251516
 H         -7.5943457427       -0.0541317749       -0.2900722424
 C         -6.2898765529        0.2995492321        1.3854790739
 H         -5.6501720700        1.1019682821        1.7617851613
 H         -7.0317442778        0.0841378977        2.1591172646
 C         -5.4313071932       -0.9597003476        1.2120039195
 H         -5.1249127662       -1.2916306088        2.2083965086
 H         -6.0286746526       -1.7511525571        0.7547106416
 H         -5.2000648916        1.0273234049       -2.8297738619
 H         -6.8281023674        0.3511690712       -2.6881204315
 H         -4.9609795858       -1.3470622028       -2.7342268652
 H         -6.0386766501       -1.4874084117       -1.3319219678
 O         -2.9511937684       -0.5279053313       -1.5906874130
 C         -1.7414063406       -0.3265291422       -0.9364143930
 O         -0.7815025306       -0.1344456492       -1.7042092045
 O         -2.9531733387       -0.5283434601        2.4712912012
 C         -0.4476773357       -0.1358779000        1.2278578642
 C          0.3030692851        1.0428471059        0.6619820335
 C         -0.3427586100        2.2752842997        0.5893400743
 C          0.2979198465        3.3806932005        0.0672083348
 C          1.6088753799        3.2897092265       -0.3686826228
 C          2.2661288972        2.0699112612       -0.2897356676
 C          1.6109720644        0.9550644356        0.2154464037
 H          2.1332831508        0.0139971636        0.2396321817
 N          3.5953429737        1.9327490667       -0.7204667743
 S          4.6687751226        1.0912263732        0.2502635719
 O          4.3388433280        1.2332304336        1.6497850450
 O          5.9759501025        1.5727649947       -0.1444718228
 C          4.5170172739       -0.6117694048       -0.2442028265
 C          4.5077438191       -0.9163476493       -1.5907313597
 C          4.4369941190       -2.2457984988       -1.9746494462
 C          4.3845287422       -3.2428497192       -1.0123358467
 C          4.3974888694       -2.9204607305        0.3362220207
 C          4.4650298472       -1.5921824201        0.7267074097
 H          4.4684480227       -1.2956153682        1.7636316706
 H          4.3536740200       -3.6967298542        1.0837611808
 H          4.3292855426       -4.2769226925       -1.3143759235
 H          4.4220681991       -2.5008112108       -3.0220222383
 H          4.5502612763       -0.1164658473       -2.3107238060
 H          4.0117356913        2.7773294904       -1.0851481635
 H          2.1149372855        4.1543672870       -0.7711196498
 H         -0.2214169060        4.3255824583        0.0070394114
 H         -1.3639913207        2.3502330899        0.9389224205
 H         -0.7809917771        0.1377799687        2.2438155133
 C          0.4156767562       -1.3795575233        1.3784716503
 C         -0.1903534436       -2.7501162811        1.3636849738
 C          0.6876038455       -2.3074997294        0.2337224884
 H          1.6741752908       -2.7390525544        0.1490251729
 H          0.2313754929       -2.0735429295       -0.7148592362
 H          0.1905448774       -3.4852644316        2.0564234681
 H         -1.2536163755       -2.8254419082        1.1875412073
 H          1.2290020626       -1.2219937989        2.0813985347
