  62
        -98.93656985
 C          2.3756263510        0.4272727454        0.0391230065
 C          3.4627790264        0.3797715889        0.9424078996
 C          4.4866953145       -0.6446290938        0.6799218427
 C          4.3353003869       -1.4733983135       -0.3675379241
 C          5.2272772410       -2.6108638444       -0.7983662885
 C          6.7434740773       -2.3723787365       -0.7704980489
 C          7.1812689049       -0.9327939818       -1.0774783042
 H          7.9477685869       -0.9532058972       -1.8544590616
 H          6.3382048996       -0.3595856313       -1.4670202314
 C          7.7672383326       -0.2145132265        0.1405389160
 H          8.4291481201       -0.9042460676        0.6688007714
 H          8.3776794966        0.6230593966       -0.2056237159
 C          6.7434377655        0.3489640453        1.1253121176
 H          7.2857875074        0.7252554149        1.9961060808
 H          6.2282409104        1.2024844051        0.6762230785
 C          5.6702540526       -0.6422821449        1.6042675740
 H          6.0836772204       -1.6395808454        1.7328725226
 H          5.2975696514       -0.2918866066        2.5707191309
 H          7.1822915719       -3.0502653669       -1.5045570020
 H          7.1405820453       -2.6635938955        0.2009133246
 H          4.9907988175       -3.4811954878       -0.1793796533
 H          4.9124665935       -2.8467475249       -1.8176879560
 O          3.2631331675       -1.3992046644       -1.2064651703
 C          2.2646265538       -0.4539130174       -1.0348158551
 O          1.3586052070       -0.5023920152       -1.8880325393
 H         -1.0938102553        1.8002017565       -1.1096405595
 C         -1.1566827690        1.0763693615       -0.3120809863
 C         -0.0399680408        0.7943662414        0.4572617856
 C         -0.1599876411       -0.1410800143        1.4824385843
 C         -1.3593948866       -0.7839172396        1.7170630381
 C         -2.4688928975       -0.5099322484        0.9354401248
 C         -2.3642589358        0.4272323885       -0.0816989732
 N         -3.4832544568        0.7068413543       -0.8822768439
 S         -4.9559497917        1.0171946983       -0.1430761758
 O         -5.6897340775        1.8270355824       -1.0910137108
 O         -4.7771856416        1.5767262239        1.1765093480
 C         -5.7300113690       -0.5821331801       -0.0294414204
 C         -6.1551968390       -1.0563034059        1.1959565694
 C         -6.7669940639       -2.2987019125        1.2583832440
 C         -6.9430014146       -3.0401490468        0.1002170711
 C         -6.5126471358       -2.5484977228       -1.1232683950
 C         -5.9011384067       -1.3070626452       -1.1924447657
 H         -5.5565292991       -0.8886653156       -2.1234212234
 H         -6.6513727975       -3.1279555485       -2.0218283577
 H         -7.4189306744       -4.0067445361        0.1510077227
 H         -7.1030318824       -2.6824310629        2.2083134896
 H         -5.9943058127       -0.4465164910        2.0708583215
 H         -3.3021152946        1.3631705240       -1.6275491039
 H         -3.4069986723       -1.0110299618        1.1095990241
 H         -1.4334951507       -1.5079356806        2.5143862589
 H          0.7064672392       -0.3571961118        2.0927219567
 C          1.2925019695        1.4697563656        0.2480190967
 H          1.5605545704        1.9848071852        1.1825181350
 C          1.3044273577        2.4777089645       -0.8815990718
 C          0.7661282826        3.8594399443       -0.6628542611
 C          2.2423380653        3.6432853529       -0.8031869066
 H          2.7292981348        3.9755481297       -1.7077919728
 H          2.8587476448        3.7258446469        0.0800117139
 H          0.2407439946        4.3445106043       -1.4720588286
 H          0.3775446315        4.0947215422        0.3166161003
 H          1.1604370410        2.0184173406       -1.8534821247
 O          3.5681692377        1.1515481249        1.9332760379
