  62
        -98.94133735
 C         -1.5683825847       -0.6251528215        0.9368674130
 C         -2.8124688577       -1.1005738482        0.4558597248
 C         -3.8886172239       -0.1004877349        0.3654846965
 C         -3.6430434181        1.1760129190        0.7095726337
 C         -4.6308729628        2.3007775913        0.6031281254
 C         -4.5354884997        2.9990978918       -0.7606711413
 C         -4.5469612225        2.0386291071       -1.9499817130
 H         -4.5066778016        2.6447725083       -2.8576588563
 H         -3.6382693665        1.4323958990       -1.9282030133
 C         -5.7707475488        1.1138177744       -2.0078444327
 H         -6.1466206491        1.0937604871       -3.0330455453
 H         -6.5674461279        1.5130871514       -1.3790079545
 C         -5.4891385406       -0.3357776348       -1.6085341066
 H         -4.6302540709       -0.7110124305       -2.1707632245
 H         -6.3549662888       -0.9405669284       -1.8913650586
 C         -5.2301753102       -0.5774183692       -0.1162315323
 H         -6.0325850897       -0.1301788697        0.4739309855
 H         -5.2418824082       -1.6584087752        0.0508820744
 H         -5.3683514359        3.6992137651       -0.8483862766
 H         -3.6053096206        3.5708970853       -0.7925312158
 H         -5.6354816238        1.9101091079        0.7531015337
 H         -4.4120169275        3.0258921299        1.3887498736
 O         -2.4326754161        1.5994047597        1.1544403014
 C         -1.3719274303        0.7185821825        1.2728114307
 O         -0.3192377591        1.2409135613        1.6894483852
 H          1.9280025824       -0.3498030367        0.2884509320
 C          1.5241998906       -0.9914791720       -0.4794534839
 C          0.3431291490       -1.6793141381       -0.2399868620
 C         -0.1840326962       -2.4802836485       -1.2474926183
 C          0.4708039400       -2.5930010399       -2.4602256223
 C          1.6621432294       -1.9260125379       -2.6867013179
 C          2.1916597992       -1.1148197985       -1.6895453235
 N          3.3790206359       -0.4028146683       -1.9000003811
 S          4.4409257942       -0.0971894109       -0.6466435461
 O          5.6935916623        0.1999509590       -1.3086493421
 O          4.4710936939       -1.1844629820        0.3038181680
 C          3.8227220713        1.3865454150        0.1156614151
 C          3.6272442725        1.4255715786        1.4812868310
 C          3.1598593025        2.5945355289        2.0593070005
 C          2.9003262549        3.6994921849        1.2646237162
 C          3.1063653924        3.6461057676       -0.1055267475
 C          3.5726571479        2.4798018158       -0.6892940868
 H          3.7449519258        2.4006580181       -1.7499202082
 H          2.9008183949        4.5086169380       -0.7191856142
 H          2.5310406308        4.6062420069        1.7171722889
 H          2.9920128807        2.6355950766        3.1234714818
 H          3.8338944233        0.5405576657        2.0630287516
 H          3.8529379884       -0.5973901693       -2.7693874533
 H          2.1765946104       -2.0255880727       -3.6305271065
 H          0.0533981201       -3.2152806999       -3.2376179418
 H         -1.1182498724       -2.9926939805       -1.0788900029
 C         -0.3447434133       -1.5150053569        1.0939764673
 H          0.3411839477       -0.9606100405        1.7490264747
 C         -0.6427714555       -2.8509584776        1.7440766282
 C          0.4964115254       -3.6384164551        2.3155613261
 C         -0.4988040836       -2.9882087108        3.2283749699
 H         -1.2000218286       -3.6155426177        3.7580142732
 H         -0.1870900301       -2.1159444176        3.7847423800
 H          1.4852185051       -3.2082153629        2.2480304707
 H          0.4795266168       -4.7132216555        2.2189538914
 H         -1.4477730933       -3.3971605023        1.2717676504
 O         -3.0406368041       -2.2915659385        0.1164942350
