  62
        -98.94175160
 C          1.7064154843        0.4777224551       -0.2894691731
 C          2.8230443620        1.2922653415        0.0333247272
 C          4.1412374508        0.7588574854       -0.3252398062
 C          4.2329285870       -0.4452656811       -0.9174135986
 C          5.5019106192       -1.1154976498       -1.3698250567
 C          6.2338431991       -1.8817146484       -0.2594600963
 C          6.9327416612       -1.0073041137        0.7824609796
 H          7.5805276553       -1.6629833260        1.3677356746
 H          7.5734751664       -0.2840121309        0.2770401411
 C          5.9789964016       -0.2754488523        1.7370812324
 H          4.9917025361       -0.7411665648        1.6923109075
 H          6.3372359080       -0.3837368969        2.7633157006
 C          5.8334201164        1.2215353352        1.4635232997
 H          5.1094953197        1.6309351048        2.1725485547
 H          6.7902810713        1.7198709965        1.6338299250
 C          5.3516856431        1.5609451002        0.0469051400
 H          6.1531562108        1.3958812823       -0.6729272851
 H          5.0714550816        2.6169004876        0.0241460253
 H          5.5195026129       -2.5420054795        0.2379206542
 H          6.9874825243       -2.5099240845       -0.7400404400
 H          5.2170168784       -1.8266276874       -2.1483499204
 H          6.1726523724       -0.3740468638       -1.8050946122
 O          3.1421314384       -1.2060925519       -1.1939033102
 C          1.8562192613       -0.7830893694       -0.8692955456
 O          0.9740742845       -1.6151449820       -1.1497851739
 O          2.7208745870        2.4137444121        0.5969034691
 C          0.3313246532        1.0070059969        0.0770593594
 C         -0.4790146433       -0.0538581162        0.7755395973
 C         -0.0831308190       -0.4761649356        2.0424323804
 C         -0.7903200368       -1.4534597771        2.7145503285
 C         -1.9216299564       -2.0147483562        2.1479241706
 C         -2.3232149128       -1.6024019246        0.8835568349
 C         -1.6028811563       -0.6284290225        0.2047299175
 H         -1.9060305713       -0.3632760891       -0.7935001851
 N         -3.4633647814       -2.1508685141        0.2831980906
 S         -4.4218933905       -1.2284999659       -0.7200341939
 O         -5.7244639166       -1.8570689466       -0.6453805825
 O         -3.8507145754       -1.1341367485       -2.0396225856
 C         -4.4868147002        0.3895072552        0.0321544033
 C         -4.8663093353        0.4903245751        1.3560810304
 C         -4.9131882742        1.7425440330        1.9466765756
 C         -4.5855848903        2.8685741322        1.2069702630
 C         -4.2160041465        2.7523933435       -0.1238029004
 C         -4.1642821444        1.5014518330       -0.7182361492
 H         -3.8749889404        1.3645163418       -1.7481350828
 H         -3.9638476167        3.6291440857       -0.6991644504
 H         -4.6192458166        3.8426140004        1.6688967289
 H         -5.2027508522        1.8368724363        2.9807847784
 H         -5.1228538710       -0.4016654839        1.9036598839
 H         -3.9972322037       -2.7857201050        0.8568661030
 H         -2.4785164116       -2.7767840451        2.6714746356
 H         -0.4655539712       -1.7770927054        3.6919454282
 H          0.7980740633       -0.0343921794        2.4874916491
 H          0.5372594284        1.8092798063        0.8054195128
 C         -0.4192204113        1.6556784603       -1.0759402692
 C          0.3093578224        2.3679280036       -2.1746323516
 C         -0.4149764201        1.0885128173       -2.4624257601
 H         -1.3299849496        1.1253401638       -3.0365125676
 H          0.1625038624        0.1940912616       -2.6377220753
 H         -0.1037004530        3.2910953448       -2.5520001696
 H          1.3893022686        2.3475059827       -2.1546918578
 H         -1.3481768322        2.1080812829       -0.7412396215
