  62
        -98.93524188
 C         -2.2044416816       -1.0901286960       -0.5702431466
 C         -3.4728758769       -0.9060856485        0.0313753790
 C         -4.1611351589        0.3748415654       -0.2177601174
 C         -3.5473108179        1.2986046973       -0.9803122615
 C         -4.0219892772        2.6819669637       -1.3387243616
 C         -3.8750083860        3.6782418851       -0.1781325426
 C         -4.3401082526        3.1553610878        1.1782412154
 H         -3.7695220086        2.2596063063        1.4313712874
 H         -4.0965172184        3.9138979173        1.9270034117
 C         -5.8338989436        2.8564919842        1.2833732795
 H         -6.3972548091        3.7629155755        1.0511754363
 H         -6.0382640246        2.5966292880        2.3251666661
 C         -6.3540964163        1.7190645375        0.4011069730
 H         -6.4842135445        2.0455673624       -0.6271362960
 H         -7.3485281911        1.4512159890        0.7696588352
 C         -5.5155595430        0.4457409129        0.4455559692
 H         -5.3567560249        0.1563103933        1.4906666389
 H         -6.0992790119       -0.3725058406        0.0069703589
 H         -2.8175734585        3.9399148678       -0.0882502062
 H         -4.4271102352        4.5852415056       -0.4303724723
 H         -3.3977093575        3.0212893337       -2.1682647850
 H         -5.0490138393        2.6461905462       -1.6895227730
 O         -2.3174218496        1.0844627138       -1.5275444077
 C         -1.6142635449       -0.0915398496       -1.3438041166
 O         -0.5106887935       -0.1135859874       -1.9238138153
 O         -4.0201694081       -1.7814497421        0.7547774677
 C         -1.4758331833       -2.3980975869       -0.3039732843
 C         -0.3249259230       -2.1050778828        0.6265620738
 C         -0.5321624329       -2.1195406117        2.0027742137
 C          0.4808423100       -1.7618106507        2.8735369034
 C          1.7175655526       -1.3708012599        2.3909107581
 C          1.9298375219       -1.3452622910        1.0194314041
 C          0.9203612147       -1.7283620415        0.1472695216
 H          1.0921667247       -1.6835156717       -0.9165518832
 N          3.1787118507       -0.9233301709        0.5151559839
 S          3.7235740585        0.5597416253        1.1222653267
 O          4.3998842111        0.3127500178        2.3722097131
 O          2.6349900457        1.5107009816        1.1764069723
 C          4.9067767763        1.0360179805       -0.1219419785
 C          6.2413902690        0.7248049996        0.0528962894
 C          7.1457248520        1.0780395831       -0.9362749655
 C          6.7024883283        1.7304197887       -2.0768877277
 C          5.3590101341        2.0354861206       -2.2383301638
 C          4.4491249085        1.6846431957       -1.2536391062
 H          3.3966712101        1.9090908605       -1.3359766101
 H          5.0157823557        2.5434978238       -3.1253068243
 H          7.4072478510        2.0054887091       -2.8455908545
 H          8.1909512303        0.8441402164       -0.8146479838
 H          6.5383642404        0.2230323883        0.9589046980
 H          3.1636061203       -0.8899533955       -0.4964420209
 H          2.5097588080       -1.0618353905        3.0539969425
 H          0.3048438897       -1.7774603725        3.9388176255
 H         -1.5067749314       -2.3940702283        2.3817336057
 H         -2.1975717192       -3.0265997560        0.2342691905
 C         -1.0672315318       -3.1073244459       -1.5777863713
 C         -0.6493175927       -4.5448532905       -1.5089218706
 C         -1.9574458263       -4.1740338997       -2.1384331544
 H         -2.0551555891       -4.2506918372       -3.2109588704
 H         -2.8664346722       -4.4000383823       -1.6005376628
 H          0.1527552054       -4.8803629099       -2.1480985758
 H         -0.6694554309       -5.0214952995       -0.5405707918
 H         -0.5620275198       -2.4653317871       -2.2882256490
