  62
        -98.93968482
 C         -2.5619898546       -0.2439893285        0.0491625905
 C         -2.3358001875       -1.2731794585       -0.8906894125
 C         -1.6989049527       -2.5008126568       -0.3848410836
 C         -1.3742624658       -2.5744477175        0.9180847965
 C         -0.6395438623       -3.6826583644        1.6210042880
 C          0.8731455219       -3.3987496195        1.6291939811
 C          1.6348797323       -3.9521362426        0.4266375251
 H          2.6673805312       -3.6051961167        0.5111136258
 H          1.6446786113       -5.0438125923        0.4730594643
 C          1.0869560891       -3.5202128022       -0.9357416468
 H          0.8427557677       -2.4552125711       -0.9078829572
 H          1.8836032914       -3.6409489688       -1.6733759831
 C         -0.1326141464       -4.3402977757       -1.3827743334
 H         -0.2239254057       -5.2188481444       -0.7440320179
 H          0.0341202977       -4.7093282064       -2.3971904227
 C         -1.4649905144       -3.5795902745       -1.4078818752
 H         -2.2872023389       -4.3011971185       -1.3438634004
 H         -1.5713072749       -3.0710435327       -2.3717580979
 H          1.3072666191       -3.8278660045        2.5348215767
 H          1.0139124766       -2.3154035461        1.6730221875
 H         -1.0000589761       -3.6882892237        2.6517294661
 H         -0.8594556939       -4.6444985520        1.1667079894
 O         -1.6417147407       -1.5716359037        1.7987735531
 C         -2.1975983656       -0.3749281533        1.3891769906
 O         -2.3339722007        0.4698062827        2.2956187444
 O         -2.6410041914       -1.1640704003       -2.1123768583
 C         -3.0888239560        1.0947063803       -0.4322477896
 C         -2.0426708749        2.1603069388       -0.2008951241
 C         -2.3444234841        3.4715138753        0.1416398211
 C         -1.3292997465        4.3944489680        0.3358392924
 C         -0.0010714574        4.0305533967        0.2186202848
 C          0.3114021386        2.7171036751       -0.1200436609
 C         -0.7070021595        1.8126017795       -0.3597951511
 H         -0.4528683571        0.8057154276       -0.6571786872
 N          1.6502097470        2.2887567790       -0.1721114194
 S          2.0361837423        0.6739134279       -0.3998590141
 O          1.7619833698        0.2537274767       -1.7586774625
 O          1.4280983321       -0.0951795804        0.6548602218
 C          3.7988473720        0.7558673876       -0.1488923875
 C          4.2770193752        0.8045276319        1.1467237861
 C          5.6440592217        0.8955414703        1.3543072085
 C          6.5060971828        0.9372204288        0.2682762946
 C          6.0122440022        0.8847864986       -1.0263222800
 C          4.6455824668        0.7940335707       -1.2400803613
 H          4.2159550756        0.7401304266       -2.2274633755
 H          6.6847159220        0.9135739261       -1.8684642930
 H          7.5696987184        1.0077021667        0.4326196477
 H          6.0311695718        0.9328145246        2.3598011745
 H          3.5680128917        0.7602563494        1.9574675698
 H          2.2960175490        2.9332881652       -0.6017705197
 H          0.7877235701        4.7447109028        0.3944548521
 H         -1.5788397770        5.4117430752        0.5968714157
 H         -3.3733413599        3.7705182024        0.2596613180
 H         -3.2290612416        0.9817834370       -1.5187979686
 C         -4.4249291014        1.4209817806        0.2015169376
 C         -5.4521703727        2.2080895787       -0.5547696422
 C         -5.6555413617        0.7426307940       -0.3191686753
 H         -6.4096927225        0.4298464596        0.3870488158
 H         -5.5304161805        0.0665355103       -1.1525907361
 H         -6.0725422077        2.9031039718       -0.0092841601
 H         -5.2014424088        2.5275915402       -1.5551184088
 H         -4.3485110214        1.5682322124        1.2728245401
