  62
        -98.93674145
 C          2.4162263308        1.1316452200        0.1884002369
 C          2.5143039424       -0.0405330638       -0.6013305689
 C          3.8816751678       -0.4794906003       -0.9271351899
 C          4.9324223428        0.2278212995       -0.4757116368
 C          6.3721799916       -0.1370694773       -0.6904059025
 C          6.8992287228       -1.0107045496        0.4566051341
 C          5.9930176614       -2.1936369158        0.7979280299
 H          5.0492871995       -1.8163879890        1.1986871456
 H          6.4797250105       -2.7557589247        1.5978685636
 C          5.7015999290       -3.1312952842       -0.3819938229
 H          5.8066556176       -4.1639086673       -0.0426987318
 H          6.4374203415       -2.9731682962       -1.1712353322
 C          4.2945282470       -2.9963303336       -0.9673331683
 H          3.5544909155       -3.0598406911       -0.1653817651
 H          4.1228325056       -3.8423003717       -1.6382034620
 C          4.0245380460       -1.7165070168       -1.7686779563
 H          3.0660349007       -1.8422974911       -2.2808997949
 H          4.8026891857       -1.5823702016       -2.5229113908
 H          6.9990514337       -0.3874344796        1.3482518559
 H          7.8910533904       -1.3760854813        0.1844546692
 H          6.4708396805       -0.6633210358       -1.6377362077
 H          6.9572491341        0.7831455515       -0.7329123623
 O          4.7988075823        1.3440648327        0.2858689403
 C          3.5470650060        1.8091128604        0.6520465802
 O          3.5716084828        2.8165422735        1.3870444025
 H         -1.4007744517        0.8900909052       -0.3543342154
 C         -1.0643844528        0.3211357799        0.4961196849
 C          0.1621537055        0.5812541033        1.0841017434
 C          0.5646132610       -0.2050624217        2.1614435055
 C         -0.2381373171       -1.2255319407        2.6313484474
 C         -1.4718855396       -1.4694633763        2.0534754266
 C         -1.8811514502       -0.6932124984        0.9766948451
 N         -3.1169891011       -0.9256002062        0.3519293688
 S         -3.9792753784        0.4051459232       -0.2252316236
 O         -3.5389525072        0.7125128164       -1.5625545372
 O         -3.9153651423        1.4874607643        0.7317807486
 C         -5.6285956388       -0.2728441714       -0.2781140634
 C         -6.0108732514       -1.0126529590       -1.3812562844
 C         -7.2816591278       -1.5648499640       -1.4096589128
 C         -8.1440743298       -1.3698272941       -0.3409529231
 C         -7.7470989899       -0.6235523676        0.7584842180
 C         -6.4770972405       -0.0695873528        0.7939689815
 H         -6.1287710575        0.5257566448        1.6226488549
 H         -8.4210633723       -0.4706074990        1.5859423829
 H         -9.1330496361       -1.7994322012       -0.3666216108
 H         -7.5947083348       -2.1431055644       -2.2639726350
 H         -5.3096875725       -1.1293766351       -2.1912159473
 H         -3.7072886033       -1.5648049078        0.8660826402
 H         -2.1046120990       -2.2613593077        2.4248795596
 H          0.0925725949       -1.8302117151        3.4626943608
 H          1.5245256695       -0.0064300192        2.6202763085
 C          1.0726568574        1.6920016669        0.6210827210
 H          1.2961700914        2.3238422130        1.4979083060
 C          0.4189971272        2.6016058103       -0.4085532672
 C          1.2395344386        3.4106260423       -1.3667483520
 C          0.4036402637        2.2742069352       -1.8700448151
 H         -0.4920571022        2.4967968932       -2.4324084697
 H          0.8970847226        1.3676083035       -2.1827756124
 H          2.3121137293        3.2838061678       -1.3378421372
 H          0.9243551020        4.4200362036       -1.5842595396
 H         -0.4704115131        3.0846261294       -0.0121176122
 O          1.5253480540       -0.6966744239       -1.0183482298
