  62
        -98.93470755
 C          2.3610870080        1.2600885542        0.1605505111
 C          2.2455976337       -0.1368303556       -0.0413494437
 C          3.3549145998       -0.9657194753        0.4746986940
 C          4.3764099846       -0.3773432704        1.1184911670
 C          5.6167642235       -1.0296233831        1.6631012372
 C          6.7580888398       -0.9700288398        0.6338285087
 C          6.7837500067       -2.1246075801       -0.3670412124
 H          7.5468875228       -1.8912859488       -1.1130450014
 H          7.0952457683       -3.0369802617        0.1457772254
 C          5.4605095685       -2.3976490423       -1.0871310910
 H          5.6845668243       -2.9534946075       -1.9997296646
 H          5.0033227568       -1.4535308813       -1.3890744647
 C          4.4697101486       -3.2122564648       -0.2418124538
 H          4.1085896127       -4.0609715365       -0.8265178833
 H          4.9950586260       -3.6306333166        0.6166540654
 C          3.2269495277       -2.4459646776        0.2380804575
 H          2.4302554083       -2.5406074641       -0.5069708616
 H          2.8490457260       -2.9138979800        1.1535533266
 H          7.7107895899       -0.9639338280        1.1670598986
 H          6.6771454176       -0.0202536873        0.0988932736
 H          5.9109652232       -0.4527808461        2.5423973310
 H          5.4127015462       -2.0521155354        1.9665865416
 O          4.4324049047        0.9673092475        1.3211928366
 C          3.4391854319        1.8098076111        0.8614861183
 O          3.6226744396        3.0119738262        1.1371631956
 H         -0.6465904946        0.9671580709       -1.7426643826
 C         -0.9346004921        1.1306643354       -0.7159189027
 C         -0.0613780802        1.7726309788        0.1462437369
 C         -0.4353447151        1.9367503707        1.4764878568
 C         -1.6575600902        1.4747517083        1.9268875065
 C         -2.5269002793        0.8309801306        1.0634250896
 C         -2.1526939285        0.6427359700       -0.2598496798
 N         -3.0203622776       -0.0166563281       -1.1446873552
 S         -3.8585258877       -1.3724345298       -0.6253752107
 O         -3.1465054562       -2.1037978907        0.3962332555
 O         -4.1761120311       -2.0999252805       -1.8353716649
 C         -5.3642504686       -0.6956935650        0.0468865006
 C         -6.0903304757        0.1840902018       -0.7318945112
 C         -7.2688289153        0.7097320789       -0.2271246005
 C         -7.7018378734        0.3465002889        1.0394373188
 C         -6.9642886406       -0.5411428786        1.8075096860
 C         -5.7838645348       -1.0696539628        1.3084077344
 H         -5.1751432372       -1.7588466078        1.8722903941
 H         -7.3022581215       -0.8234018263        2.7917164832
 H         -8.6192721038        0.7573238628        1.4303831889
 H         -7.8450867533        1.4002187716       -0.8216678420
 H         -5.7218389627        0.4387698113       -1.7113963954
 H         -2.6215960260       -0.1701992384       -2.0596395535
 H         -3.4745039224        0.4542645491        1.4119312495
 H         -1.9364293604        1.6121984238        2.9606711781
 H          0.2516030165        2.4230617791        2.1559143031
 C          1.2988672945        2.2466941412       -0.2990850413
 H          1.5270380852        3.1763194845        0.2462526716
 C          1.3533638083        2.5925216296       -1.7799976505
 C          2.6737050968        2.7821148600       -2.4639692546
 C          1.7958304725        1.6270579533       -2.8362111978
 H          1.2941957924        1.6548699558       -3.7929935857
 H          2.0869146129        0.6354688538       -2.5282356871
 H          3.5639165231        2.5823291546       -1.8849544911
 H          2.7812620394        3.5967815073       -3.1639768897
 H          0.5633176159        3.2841403573       -2.0570080081
 O          1.2816447041       -0.6885658941       -0.6342836085
