  62
        -98.93434928
 C          2.0689882431        1.2501168366        0.6472216738
 C          2.7506829371        0.9735802001       -0.5645471088
 C          4.0031326692        0.2101704300       -0.4315838205
 C          4.4275913985       -0.1667851657        0.7870175669
 C          5.6507506944       -0.9939560366        1.0548705369
 C          5.3115403999       -2.4909598800        1.0815535055
 C          4.4805394359       -2.9577676142       -0.1139464401
 H          3.4943881821       -2.4890103960       -0.0696582478
 H          4.3276993561       -4.0336846749       -0.0033813055
 C          5.1169227580       -2.6695105492       -1.4809240951
 H          5.0199770745       -3.5598169855       -2.1058891171
 H          6.1829610614       -2.4740733329       -1.3589309239
 C          4.4742483020       -1.5135849453       -2.2500095669
 H          3.3917855596       -1.6598715180       -2.2943696080
 H          4.8498165903       -1.5390701269       -3.2764053288
 C          4.7487113650       -0.1095945018       -1.6965217973
 H          4.4012170886        0.6132942349       -2.4402116057
 H          5.8228243527        0.0282160757       -1.5577524231
 H          4.7476375450       -2.7024897768        1.9931717334
 H          6.2444897038       -3.0561531707        1.1209294095
 H          6.3950517322       -0.7929237443        0.2869558697
 H          6.0562155048       -0.7051765903        2.0260878697
 O          3.7489086861        0.1223773453        1.9271990351
 C          2.5498654008        0.8111096662        1.8825207148
 O          2.0109907085        0.9704010775        2.9984341921
 H         -0.5341704184       -0.1170769911        1.4930712532
 C         -0.8064678908        0.0958786680        0.4663241054
 C         -0.2496633185        1.2095630957       -0.1591914657
 C         -0.5991673741        1.4508447517       -1.4815470725
 C         -1.4715712880        0.6036420601       -2.1458586685
 C         -2.0119719897       -0.5036789920       -1.5209251317
 C         -1.6674552318       -0.7616222484       -0.1998602537
 N         -2.2017270155       -1.8855250956        0.4521559646
 S         -3.8287323988       -2.2163672656        0.2496758964
 O         -4.2198622289       -2.9346135933        1.4423624695
 O         -4.0313421138       -2.9110824201       -0.9974188783
 C         -4.6274280522       -0.6221027810        0.1881537392
 C         -4.4917388570        0.2160729820        1.2772359256
 C         -5.0779590869        1.4703937977        1.2346261394
 C         -5.7871249828        1.8629702941        0.1094719132
 C         -5.9197528991        1.0075920150       -0.9730130999
 C         -5.3329837520       -0.2473615953       -0.9368828481
 H         -5.4080863398       -0.9426601336       -1.7570619480
 H         -6.4739708502        1.3143544113       -1.8453077311
 H         -6.2393047978        2.8416426850        0.0784353322
 H         -4.9761890272        2.1367713688        2.0761368422
 H         -3.9386177488       -0.1205162164        2.1396337859
 H         -1.9206007693       -1.9764038216        1.4169311183
 H         -2.6739033751       -1.1806137565       -2.0361011448
 H         -1.7242392728        0.8072478930       -3.1752812223
 H         -0.1696826392        2.2751763874       -2.0201990711
 C          0.7366662866        1.9936127854        0.6718060345
 H          0.3970598931        1.9031003695        1.7154423412
 C          0.9284821854        3.4880322329        0.4557614765
 C          1.2623091610        4.1609857549       -0.8398538178
 C         -0.0784763372        4.3803061427       -0.2055739949
 H         -0.2748644961        5.3420983845        0.2446249928
 H         -0.9448300315        3.9208283138       -0.6535947569
 H          1.3531952762        3.5539671878       -1.7248593734
 H          1.9802630342        4.9686309707       -0.8052176928
 H          1.4296307037        3.9058294852        1.3266387089
 O          2.3507106545        1.3307042153       -1.6993416866
