  62
        -98.93969925
 C         -2.6430631816       -1.3156893861        0.3227330744
 C         -2.8727215720       -0.5097795584       -0.8194998849
 C         -3.8826171539        0.5506810724       -0.6646212437
 C         -4.5202578046        0.6980261751        0.5099648316
 C         -5.5208648980        1.7729505519        0.8182902453
 C         -4.8386008771        3.0107954406        1.4174037776
 C         -3.6234062104        3.4910298413        0.6238669311
 H         -3.2436843980        4.3863583208        1.1207141875
 H         -2.8374714253        2.7341997002        0.6819116308
 C         -3.9132712737        3.8086166977       -0.8498337389
 H         -4.9857049312        3.9412006516       -0.9966516393
 H         -3.4317007126        4.7547384185       -1.1058096355
 C         -3.3931074933        2.7634808515       -1.8385855755
 H         -2.3384045586        2.5606258673       -1.6350441128
 H         -3.4552704879        3.1864978102       -2.8449313793
 C         -4.1467813386        1.4274222257       -1.8568579266
 H         -5.2170269648        1.6106242713       -1.9708960889
 H         -3.8001337122        0.8629765423       -2.7276886899
 H         -5.5748937240        3.8140329398        1.4803090930
 H         -4.5112048253        2.7688407424        2.4310933507
 H         -6.0506677324        2.0419833814       -0.0934226135
 H         -6.2368371835        1.3781022940        1.5409722435
 O         -4.2831890787       -0.1008339738        1.5808615078
 C         -3.3428001368       -1.1132093770        1.5170014145
 O         -3.2247618411       -1.7660989628        2.5727373293
 O         -2.2750500460       -0.6448474418       -1.9198178208
 C         -1.6406387601       -2.4591622259        0.3491679170
 C         -0.2500231845       -1.9604149259        0.6483725916
 C          0.5100874267       -2.5246270781        1.6656801005
 C          1.7908807013       -2.0671977889        1.9233498023
 C          2.3377459088       -1.0401131921        1.1752408650
 C          1.5872618299       -0.4707350870        0.1546164220
 C          0.3040640516       -0.9318710596       -0.1015980956
 H         -0.2717940277       -0.4955255947       -0.9047460220
 N          2.1285570250        0.5805351722       -0.6068600134
 S          3.6439737171        0.3466391720       -1.2937616403
 O          3.6859718546        1.2317367278       -2.4367892735
 O          3.8945031128       -1.0523293335       -1.5531900536
 C          4.7705346539        0.9494625496       -0.0535693902
 C          5.7885485064        0.1373622760        0.4063422105
 C          6.6598686093        0.6326444000        1.3642002496
 C          6.4989414748        1.9242482107        1.8417166286
 C          5.4728398473        2.7280650826        1.3674246695
 C          4.5993171278        2.2395282361        0.4091402789
 H          3.7919422275        2.8321725568        0.0124223153
 H          5.3507578882        3.7320169351        1.7410048234
 H          7.1771232683        2.3071770764        2.5878579158
 H          7.4584465409        0.0097119764        1.7337935944
 H          5.8713501712       -0.8621165875        0.0099852378
 H          1.4843118520        0.9452702510       -1.2942484975
 H          3.3344392108       -0.6800316141        1.3715409482
 H          2.3696256446       -2.5138237959        2.7172933032
 H          0.0863253080       -3.3198073332        2.2615553468
 H         -1.9534724832       -3.0911097383        1.1948965401
 C         -1.7029465663       -3.3235917897       -0.9048452064
 C         -0.5975681056       -3.4246014858       -1.9089188659
 C         -0.8794572333       -4.5744492104       -0.9920040533
 H         -1.3311855258       -5.4665210479       -1.3984825375
 H         -0.1729439682       -4.7584248440       -0.1965113784
 H         -0.8752153673       -3.5061523272       -2.9490436757
 H          0.3041024015       -2.8534626214       -1.7486144932
 H         -2.7112325443       -3.3809000699       -1.3026993127
