  62
        -98.94442356
 C          1.9366755563        1.0738387216       -0.2166046231
 C          2.4410850237       -0.0838294414       -0.8560893291
 C          3.8983024928       -0.2679926481       -0.7839908511
 C          4.6511692041        0.6565452837       -0.1602935523
 C          6.1367094323        0.5654192441        0.0326208458
 C          6.4823168707       -0.1245196886        1.3597899411
 C          5.7355973727       -1.4392964385        1.5851984867
 H          4.6687745635       -1.2305105229        1.6931001865
 H          6.0806062536       -1.8503062184        2.5364222225
 C          5.9356276020       -2.4812057620        0.4758129360
 H          6.1227327960       -3.4529744470        0.9375645733
 H          6.8167050033       -2.2288232559       -0.1153393756
 C          4.7341976163       -2.6550204429       -0.4554078949
 H          3.8296794300       -2.8158519231        0.1369792767
 H          4.8960773239       -3.5548375337       -1.0550258914
 C          4.4713530487       -1.4986211815       -1.4284044671
 H          3.7202763726       -1.8356284112       -2.1490622291
 H          5.3871268574       -1.2597429162       -1.9731196266
 H          6.2335436726        0.5551274371        2.1780782741
 H          7.5583059566       -0.3062037552        1.3842890901
 H          6.5729389952        0.0161027364       -0.7993016904
 H          6.5450562350        1.5773750539        0.0422626112
 O          4.1313569955        1.7698004631        0.4172806174
 C          2.7654931671        1.9998480238        0.4164415089
 O          2.4174878497        3.0438888360        1.0041824064
 H         -1.7158403168       -0.0803871935       -1.2234397138
 C         -1.3714779577       -0.4303064783       -0.2653267618
 C         -0.2973944110        0.1731886043        0.3684011175
 C          0.1153010982       -0.3268389429        1.6017229991
 C         -0.5132925704       -1.4167742408        2.1697758008
 C         -1.5792575468       -2.0237564246        1.5281239414
 C         -2.0069242780       -1.5272223139        0.3037367096
 N         -3.0787859352       -2.1307092093       -0.3739302373
 S         -4.2778697643       -1.1875943335       -1.0562511621
 O         -5.3809932041       -2.0995013036       -1.2644045502
 O         -3.7834400911       -0.5098307429       -2.2265175370
 C         -4.6904842816       -0.0127491104        0.2201316542
 C         -5.4612877376       -0.4482810045        1.2806874109
 C         -5.7375772801        0.4308489796        2.3146726892
 C         -5.2334214551        1.7222149156        2.2750145876
 C         -4.4629183791        2.1441323650        1.2028465343
 C         -4.1861810283        1.2700966962        0.1631853826
 H         -3.5948194210        1.5622115040       -0.6887341301
 H         -4.0737978068        3.1494962916        1.1725226554
 H         -5.4443374120        2.4055591849        3.0824521627
 H         -6.3410656537        0.1079606921        3.1476199794
 H         -5.8433386563       -1.4562171217        1.2687127169
 H         -3.4759864699       -2.9276109771        0.1017838863
 H         -2.0666084917       -2.8818500857        1.9654530607
 H         -0.1735704399       -1.7981036936        3.1209993347
 H          0.9494022641        0.1470257061        2.1019464297
 C          0.4432797475        1.3496169376       -0.2187515639
 H          0.2944433649        2.2156473996        0.4428081699
 C         -0.0126258054        1.7210723319       -1.6141606452
 C         -1.1555084897        2.6699329850       -1.8080221604
 C          0.2437909126        3.1088003062       -2.1169061021
 H          0.5315401807        3.2380311163       -3.1494768713
 H          0.7247457509        3.7994004339       -1.4392315968
 H         -1.6191960385        3.0770698099       -0.9219807783
 H         -1.8368070395        2.4962181065       -2.6281819731
 H          0.1031481502        0.9087804312       -2.3231334513
 O          1.7162049822       -0.9214761863       -1.4539036142
