  62
        -98.94414617
 C         -2.5030711402       -1.1603074272       -0.0762584993
 C         -3.2340222541       -0.4148310970        0.8785757542
 C         -4.0400415531        0.6899245562        0.3473592736
 C         -4.0535694251        0.9292383663       -0.9769858607
 C         -4.8464969521        2.0014877863       -1.6742000380
 C         -4.1632527639        3.3758075409       -1.6880831500
 C         -4.1421095168        4.1050718416       -0.3441387355
 H         -3.8313210814        5.1329469527       -0.5411623383
 H         -5.1525314964        4.1430012617        0.0638815490
 C         -3.1898346092        3.4926507382        0.6926877078
 H         -2.4821702766        2.8293125432        0.1890415249
 H         -2.6038781271        4.2851741640        1.1641492040
 C         -3.8855189693        2.7167644539        1.8114845066
 H         -3.1177682484        2.2995474904        2.4689412073
 H         -4.4985420032        3.3994084463        2.4040126110
 C         -4.7707732917        1.5622404477        1.3232621575
 H         -5.6846504097        1.9525959627        0.8762287259
 H         -5.0370317098        0.9464538528        2.1858833018
 H         -3.1406767528        3.2538907911       -2.0527833889
 H         -4.7002189067        3.9993136669       -2.4064324578
 H         -4.9734699908        1.6704634255       -2.7070620279
 H         -5.8306330945        2.0877035784       -1.2129618000
 O         -3.3375165929        0.1875896714       -1.8629362036
 C         -2.5278910912       -0.8567773886       -1.4378114367
 O         -1.9003993092       -1.4234789307       -2.3511838743
 O         -3.2107958388       -0.6585494499        2.1161147203
 C         -1.6338162406       -2.3102194536        0.3964937259
 C         -0.1843230938       -2.0504537738        0.0641643630
 C          0.6639518916       -3.0191034336       -0.4555702955
 C          1.9895376797       -2.7209945151       -0.7214721723
 C          2.4981693264       -1.4595215665       -0.4753809681
 C          1.6626898128       -0.4858411932        0.0569309926
 C          0.3377693485       -0.7895734254        0.3275947496
 H         -0.3103941300       -0.0293308391        0.7479207956
 N          2.1691666597        0.8037253819        0.3031513387
 S          3.5538311254        0.9314017292        1.2475222040
 O          3.6533274793       -0.1614702231        2.1872195848
 O          3.5043472526        2.2624291229        1.8122028416
 C          4.8870123257        0.8488844557        0.0709874259
 C          5.8743178349       -0.1060347561        0.2153920589
 C          6.9079546692       -0.1454400909       -0.7075572723
 C          6.9356695807        0.7659108027       -1.7520487311
 C          5.9375644470        1.7204186794       -1.8812154413
 C          4.9023216052        1.7663008776       -0.9612885411
 H          4.1097894212        2.4933470267       -1.0237551198
 H          5.9623521277        2.4274581521       -2.6947462720
 H          7.7397366652        0.7324755926       -2.4701103370
 H          7.6850470464       -0.8861968117       -0.6087460786
 H          5.8072222486       -0.7976039317        1.0399933882
 H          1.4688388301        1.4571542499        0.6231049196
 H          3.5272497623       -1.2217981713       -0.6895236097
 H          2.6350070518       -3.4827316953       -1.1311953676
 H          0.2865086257       -4.0080718570       -0.6565346000
 H         -1.7310866877       -2.3175000084        1.4932219830
 C         -2.1551419153       -3.6247399797       -0.1452981686
 C         -1.9681321437       -4.8922696304        0.6322009107
 C         -3.3269223972       -4.2692244061        0.5306133634
 H         -4.0742486424       -4.7518143895       -0.0810568969
 H         -3.7303765023       -3.7733258981        1.4016172871
 H         -1.7846797139       -5.8074847281        0.0898408746
 H         -1.4511033391       -4.8276700773        1.5777842558
 H         -2.1125301812       -3.6734940756       -1.2274964961
