  62
        -98.93555799
 C         -2.3393905510       -0.5541900941        0.8920750021
 C         -3.4839301157       -1.0546409007        0.2207566667
 C         -4.6911303809       -0.2184151203        0.3115968202
 C         -4.6636669302        0.9388491736        0.9946878216
 C         -5.8200555921        1.8813346568        1.1924947772
 C         -6.0401056520        2.8570656670        0.0283378859
 C         -6.6186745138        2.2338727277       -1.2426721762
 H         -7.5149170899        1.6658702284       -0.9915294971
 H         -6.9253862603        3.0565371784       -1.8916773339
 C         -5.6372631768        1.3380402601       -2.0112817370
 H         -4.6177995550        1.5432595601       -1.6759500459
 H         -5.6787712877        1.5814449066       -3.0753388383
 C         -5.9103423200       -0.1600304671       -1.8776394408
 H         -5.1362686679       -0.7006310714       -2.4279756438
 H         -6.8748028196       -0.3987978734       -2.3312629840
 C         -5.9102807774       -0.6748230418       -0.4324703218
 H         -6.8137522763       -0.3503346858        0.0831274859
 H         -5.8927943140       -1.7670669042       -0.4583258992
 H         -6.7311079747        3.6282118121        0.3767581846
 H         -5.0895041845        3.3430811935       -0.2035288169
 H         -6.7319110799        1.3091911105        1.3664682827
 H         -5.5964453780        2.4613135715        2.0905200520
 O         -3.5433915452        1.3870734082        1.6240581444
 C         -2.3641317433        0.6633591684        1.5770282152
 O         -1.4157269497        1.1968930654        2.1906377420
 O         -3.5222803379       -2.1340426766       -0.4209896942
 C         -1.0085156946       -1.2859365982        0.9221857672
 C         -0.1431855732       -0.9222821195       -0.2579838102
 C         -0.6592424078       -0.8651097309       -1.5483787001
 C          0.1596154752       -0.5396713383       -2.6142164530
 C          1.5028728555       -0.2748178484       -2.4165955329
 C          2.0329746884       -0.3425211744       -1.1324054546
 C          1.2049078204       -0.6563569231       -0.0635433099
 H          1.6188465930       -0.6773414192        0.9331028264
 N          3.4084131196       -0.1439223451       -0.9279865530
 S          3.9931025056        0.4902844970        0.5200739518
 O          3.8491025330       -0.5010436741        1.5558764858
 O          3.4032982958        1.7855060948        0.7768189174
 C          5.7161418316        0.6611740839        0.0962560809
 C          6.2325675721        1.9071223301       -0.2034815220
 C          7.5707539709        2.0118612521       -0.5505248107
 C          8.3639121747        0.8753208021       -0.5939517480
 C          7.8312175753       -0.3687958257       -0.2892915964
 C          6.4949832416       -0.4803603618        0.0595163719
 H          6.0395391908       -1.4233568871        0.3129414285
 H          8.4516267805       -1.2498547848       -0.3214053563
 H          9.4046628098        0.9598235318       -0.8640546743
 H          7.9884578678        2.9777823980       -0.7845612160
 H          5.5800311284        2.7637472673       -0.1486755720
 H          3.8612116266        0.2906906249       -1.7206966920
 H          2.1394542765       -0.0223848217       -3.2509219274
 H         -0.2531567322       -0.4916215351       -3.6107132762
 H         -1.7033477896       -1.0870751042       -1.7074069298
 H         -0.4947916100       -0.9162494190        1.8253161329
 C         -1.1660468842       -2.7937981456        1.0792903049
 C         -0.8539429907       -3.7722924724       -0.0084908988
 C          0.0491466774       -3.6675791045        1.1811203464
 H          0.0490314994       -4.4670111196        1.9066852093
 H          1.0120000861       -3.1975673305        1.0436903553
 H         -1.4956365676       -4.6346964963       -0.1026907811
 H         -0.5021335747       -3.3868991079       -0.9523170012
 H         -1.9993291731       -3.0448392450        1.7277679967
