  62
        -98.94274746
 C         -1.8036218335       -1.5256685125        0.2360901166
 C         -1.4616239581       -0.1654593159        0.0235630385
 C         -2.4880111100        0.8139805093        0.4133774375
 C         -3.6495120355        0.4027094467        0.9498794206
 C         -4.7834763001        1.2853594084        1.3959671165
 C         -5.7259540852        1.7111991306        0.2616282177
 C         -5.1554514687        2.7486547060       -0.7065847620
 H         -5.9892543435        3.1161385118       -1.3082380161
 H         -4.7650031853        3.5951840027       -0.1410245529
 C         -4.0689205110        2.2095373276       -1.6476692531
 H         -4.1114679659        1.1179324824       -1.6644423071
 H         -4.2673983386        2.5518079882       -2.6659560748
 C         -2.6478193800        2.6452982385       -1.2900480138
 H         -1.9580390335        2.1774817271       -1.9971217701
 H         -2.5603072082        3.7284291893       -1.3996635030
 C         -2.2082769623        2.2583815689        0.1278108105
 H         -2.7037416711        2.8934193287        0.8615369286
 H         -1.1281759382        2.4010600167        0.2042213288
 H         -6.0282417855        0.8208220895       -0.2948784628
 H         -6.6218634985        2.1321816904        0.7239643284
 H         -4.3860520549        2.1711997439        1.8921418186
 H         -5.3590283042        0.7085993877        2.1232549436
 O         -3.9240917048       -0.9106322035        1.1725850809
 C         -3.0165644286       -1.8971121901        0.8244028433
 O         -3.3979748996       -3.0546345900        1.0918178535
 O         -0.3748223154        0.2330714352       -0.4658320199
 C         -0.8537719199       -2.6625168438       -0.1065328300
 C          0.5286770404       -2.3261461354        0.3911054652
 C          0.7983280767       -2.3993317029        1.7537839712
 C          2.0382724153       -2.0389648892        2.2482531698
 C          3.0293326900       -1.5853686599        1.3958273685
 C          2.7635584423       -1.4957371491        0.0359255843
 C          1.5260505894       -1.8807258570       -0.4608298388
 H          1.3265233249       -1.7907377225       -1.5170511432
 N          3.7531644705       -1.0165404462       -0.8422561591
 S          4.5535106584        0.4004811883       -0.4539534597
 O          5.1515580481        0.8396126112       -1.6954070327
 O          5.4698402247        0.1445133774        0.6303123277
 C          3.3073208026        1.5636557409        0.0673837042
 C          3.1132323648        1.8029325704        1.4120329752
 C          2.1348570239        2.7054817982        1.7956298195
 C          1.3740533110        3.3500949584        0.8333340395
 C          1.5788037351        3.0951471146       -0.5137513269
 C          2.5513694691        2.1901449218       -0.9024789898
 H          2.7443325831        1.9736433869       -1.9408280144
 H          0.9801673803        3.5929269559       -1.2599440291
 H          0.6171869186        4.0574578667        1.1357972538
 H          1.9684075589        2.9025547650        2.8427485248
 H          3.7336221632        1.2918191826        2.1297883604
 H          3.4442274197       -0.9813093762       -1.8032165454
 H          3.9996623609       -1.2937938310        1.7636200889
 H          2.2346889100       -2.1060971041        3.3077352801
 H          0.0175898073       -2.7334461777        2.4237464842
 H         -1.2235893171       -3.5277445495        0.4664210826
 C         -0.8734330619       -3.0704692372       -1.5727694570
 C         -2.1655910985       -3.1134520303       -2.3309637508
 C         -1.1237447298       -2.0968021710       -2.6834501786
 H         -0.5784529598       -2.2242356964       -3.6076651485
 H         -1.3008670120       -1.0659395799       -2.4202682576
 H         -2.3377771590       -3.9348455963       -3.0100696422
 H         -3.0548127251       -2.7804484922       -1.8155229875
 H         -0.1685650028       -3.8711856578       -1.7766427299
