  62
        -98.93521510
 C         -1.7281100913       -1.0510655699       -0.1302429295
 C         -3.1015100204       -1.3533772106        0.0510081177
 C         -4.0551508371       -0.2942448259       -0.3046608025
 C         -3.5970848361        0.8845738904       -0.7620053243
 C         -4.4231681428        2.0544602694       -1.2276154050
 C         -5.2875919085        2.7492034434       -0.1578592897
 C         -6.7300007896        2.2341880562       -0.0778830158
 H         -7.3980498421        3.0839139151        0.0769434660
 H         -7.0002358729        1.7953258051       -1.0391876027
 C         -7.0189168513        1.2296298372        1.0417360007
 H         -7.1099693822        1.7670470431        1.9884706970
 H         -7.9854045022        0.7654917810        0.8336150385
 C         -5.9744810128        0.1306799011        1.2382343934
 H         -6.3893047536       -0.6168514169        1.9174026308
 H         -5.0948024857        0.5452248592        1.7364381676
 C         -5.5125517869       -0.5577879207       -0.0608777598
 H         -5.6230703912       -1.6401376892        0.0320149300
 H         -6.1099457402       -0.2229243689       -0.9077203311
 H         -4.7993864005        2.6691125217        0.8130130594
 H         -5.3191141397        3.8085795954       -0.4173961630
 H         -3.7064324779        2.7741402684       -1.6283980034
 H         -5.0615846339        1.7259881204       -2.0510181149
 O         -2.2688310480        1.1457265627       -0.8942478024
 C         -1.3025583190        0.2026499905       -0.5687891916
 O         -0.1362846040        0.6114805444       -0.7132341495
 O         -3.5120615226       -2.4607683069        0.4893187999
 C         -0.7173558273       -2.1261144164        0.2236321927
 C          0.4007048185       -1.5525108519        1.0576936016
 C          0.0882234330       -0.9937667781        2.2952442469
 C          1.0747533253       -0.4629339045        3.1021547574
 C          2.3973575964       -0.4817733155        2.6940903922
 C          2.7219707086       -1.0406162169        1.4645084480
 C          1.7265950504       -1.5739837913        0.6549433093
 H          2.0056996775       -1.9756279638       -0.3042881806
 N          4.0640776381       -1.1142950666        1.0481578184
 S          4.5570557761       -0.5069069881       -0.4310240056
 O          3.8119708615       -1.1270639121       -1.4943894132
 O          5.9889240795       -0.7181632781       -0.4477345876
 C          4.2271195437        1.2441837842       -0.3423299284
 C          5.2839847307        2.1019852833       -0.1023357292
 C          5.0346263833        3.4586679873        0.0216947712
 C          3.7354116044        3.9322430424       -0.0861232990
 C          2.6869850031        3.0566835460       -0.3210824051
 C          2.9277898522        1.6969814774       -0.4514494764
 H          2.1184462328        1.0078725586       -0.6332923027
 H          1.6721568817        3.4123370178       -0.4041368940
 H          3.5379591737        4.9881946786        0.0127884348
 H          5.8498073915        4.1404627875        0.2036644229
 H          6.2767362090        1.6882105564       -0.0277642552
 H          4.7239535316       -0.8250435227        1.7568491716
 H          3.1717682998       -0.0700886710        3.3236227695
 H          0.8147073997       -0.0297016100        4.0562244686
 H         -0.9458473493       -0.9786399087        2.6128674142
 H         -1.2808560765       -2.8317397164        0.8578355280
 C         -0.2187817656       -2.9251634139       -0.9710030415
 C         -1.0725340541       -3.1267863611       -2.1861191946
 C          0.1593718812       -2.2785932390       -2.2682658930
 H          1.0214033090       -2.6574591993       -2.7982668132
 H          0.0459349530       -1.2087458137       -2.3465381173
 H         -1.0654675938       -4.0956633819       -2.6624344636
 H         -2.0336989019       -2.6340059427       -2.2117645083
 H          0.3816638644       -3.7766446004       -0.6638415426
