  62
        -98.93718226
 C          2.5808292166        1.2837490329       -0.2825383081
 C          2.0996051546        0.0267842689       -0.7294814638
 C          3.1115071235       -1.0347906168       -0.8688179090
 C          4.3988980911       -0.7707119360       -0.5862472046
 C          5.5155847586       -1.7717396741       -0.6371276425
 C          5.7082643347       -2.4553600367        0.7237517884
 C          4.4124990445       -2.9847690769        1.3387802256
 H          4.6746822627       -3.4729133374        2.2800084595
 H          3.7621458311       -2.1421502006        1.5861280530
 C          3.6438681346       -3.9713392526        0.4486680170
 H          4.3054291239       -4.3668698136       -0.3230282171
 H          3.3188219414       -4.8148928063        1.0613111737
 C          2.3899191034       -3.3909807462       -0.2083821981
 H          1.8143593927       -4.2191242569       -0.6309552837
 H          1.7627072145       -2.9145143057        0.5504073430
 C          2.6342774710       -2.3809460000       -1.3366345894
 H          3.3279400985       -2.8045068026       -2.0659177866
 H          1.6759598854       -2.2039859753       -1.8337463132
 H          6.1442536145       -1.7317756880        1.4164077550
 H          6.4161641388       -3.2768899841        0.6004322533
 H          5.2967621193       -2.5148718524       -1.4013333787
 H          6.4350801085       -1.2480517217       -0.9039165855
 O          4.8248691495        0.4474835372       -0.1663309406
 C          3.9313023038        1.4880240736        0.0199026557
 O          4.4549032491        2.5347773068        0.4507799956
 H         -0.8882860731        1.8302187100       -0.7862152568
 C         -0.7382573600        1.7293342897        0.2772671032
 C          0.4990627075        2.0268875916        0.8235514708
 C          0.6859510584        1.8531847561        2.1913763537
 C         -0.3450122863        1.3970931306        2.9915588311
 C         -1.5790292162        1.0959155230        2.4425160581
 C         -1.7694110007        1.2515773358        1.0763708413
 N         -3.0175533074        0.9449045767        0.5027804555
 S         -3.8266222497       -0.4205252067        1.0810559139
 O         -4.5391451792       -0.0477906491        2.2793193137
 O         -2.9193088067       -1.5377672661        1.2142672809
 C         -4.9854069272       -0.7093192209       -0.2415286727
 C         -6.2240862094       -0.0985824295       -0.1980431903
 C         -7.1101010495       -0.3069280931       -1.2431730525
 C         -6.7442305908       -1.1165167095       -2.3081126465
 C         -5.4969994131       -1.7225697778       -2.3377853185
 C         -4.6056156146       -1.5175856275       -1.2964595447
 H         -3.6286691864       -1.9746887594       -1.2746921096
 H         -5.2154623471       -2.3529427669       -3.1659703909
 H         -7.4356465226       -1.2789048196       -3.1198176104
 H         -8.0810883027        0.1609665186       -1.2236541472
 H         -6.4660957926        0.5149233586        0.6539406790
 H         -2.9645789316        0.9246881401       -0.5068744120
 H         -2.3872448845        0.7224096402        3.0508621097
 H         -0.1869337322        1.2672393894        4.0520034737
 H          1.6559316257        2.0693879501        2.6189738656
 C          1.6617961834        2.4691522210       -0.0288111824
 H          2.2675533588        3.1712768104        0.5658404196
 C          1.2303286370        3.2239367674       -1.2775359701
 C          2.2152873722        3.4908808570       -2.3756384624
 C          1.0544923677        2.5755147865       -2.6161432199
 H          0.2512501216        2.9264717427       -3.2478651039
 H          1.2405077126        1.5165511541       -2.6956760111
 H          2.2145773413        4.4627921106       -2.8453904136
 H          3.1985315772        3.0545439305       -2.2738036297
 H          0.5455633191        4.0315849671       -1.0364065556
 O          0.8986161243       -0.2171778467       -1.0143486140
