  62
        -98.93883098
 C         -1.9472421893        1.1048700439        0.2604519754
 C         -3.0485033280        1.2282456644       -0.6259328535
 C         -4.3016648872        0.5611924018       -0.2360652957
 C         -4.3429681517       -0.1142437759        0.9250707887
 C         -5.4901485807       -0.9069734639        1.4875058875
 C         -5.3788684393       -2.3869158244        1.0832363138
 C         -6.0160409295       -2.7374089241       -0.2608654175
 H         -5.7558180685       -3.7750305472       -0.4826595480
 H         -7.1028016201       -2.6854158970       -0.1668963585
 C         -5.5841899680       -1.8601996929       -1.4389440644
 H         -4.5059011434       -1.6942637262       -1.3984664766
 H         -5.7906329769       -2.4105418375       -2.3589761447
 C         -6.3199666292       -0.5128619180       -1.4899732017
 H         -6.7391680243       -0.3680310528       -2.4878298719
 H         -7.1645400204       -0.5417578721       -0.8017651852
 C         -5.4522631860        0.7185053991       -1.1923356724
 H         -6.0951810748        1.5291948209       -0.8332937546
 H         -4.9936701510        1.0730050793       -2.1207377865
 H         -4.3183508108       -2.6519411346        1.0680038859
 H         -5.8562112892       -2.9972864056        1.8526339603
 H         -5.4131261012       -0.8369997990        2.5745976890
 H         -6.4408205414       -0.4846416197        1.1759711648
 O         -3.2671146710       -0.2051339455        1.7513135140
 C         -2.0516462004        0.3854659063        1.4503307274
 O         -1.1795739816        0.1895581560        2.3217950017
 O         -2.9858719363        1.8759345937       -1.7051338676
 C         -0.6598653616        1.7984934866       -0.1539686949
 C          0.3320436728        0.8196483646       -0.7358598127
 C          0.7105634747        0.8982094427       -2.0709062076
 C          1.6314142047        0.0087766282       -2.5976640998
 C          2.1946889897       -0.9735757760       -1.8038387138
 C          1.8204335882       -1.0608826774       -0.4687127800
 C          0.9025516192       -0.1648192621        0.0589391126
 H          0.6081354014       -0.2454738554        1.0946748215
 N          2.3974761475       -2.0502294660        0.3492148523
 S          4.0700233308       -2.1433124221        0.3322551520
 O          4.4958006077       -2.9180001875       -0.8071355581
 O          4.4439846657       -2.6692728178        1.6262433528
 C          4.6165387783       -0.4542693353        0.1517622815
 C          5.3019558948       -0.0670668914       -0.9814164076
 C          5.6681474756        1.2621250912       -1.1212965919
 C          5.3394755522        2.1765947542       -0.1330177642
 C          4.6537821351        1.7706712846        1.0016912360
 C          4.2857562731        0.4435209704        1.1475468959
 H          3.7533165580        0.0962839644        2.0188403608
 H          4.4002506807        2.4825034176        1.7708241815
 H          5.6186323475        3.2122652677       -0.2455080433
 H          6.2030932484        1.5803158864       -2.0015177169
 H          5.5336182116       -0.8104273842       -1.7265877426
 H          2.0438138773       -2.0407080181        1.2950966857
 H          2.9108647252       -1.6780322972       -2.1950730769
 H          1.9133745244        0.0806258599       -3.6368456467
 H          0.2665261771        1.6556658867       -2.7000392787
 H         -0.9555484800        2.4880266335       -0.9556307140
 C         -0.0269537894        2.6058463850        0.9633868335
 C          0.9534598796        3.6831021964        0.6130885591
 C         -0.4051132780        4.0454470593        1.1319188420
 H         -0.4901137420        4.4410974093        2.1329603379
 H         -1.1241601855        4.4577198424        0.4390421963
 H          1.8054804232        3.8322944951        1.2576909443
 H          1.1580848675        3.8507618338       -0.4331701829
 H          0.1521188563        2.0319999620        1.8630315358
