  62
        -98.93736015
 C          2.6641667887        0.3475493759       -0.1054687053
 C          2.1913177234        1.3138828823       -1.0251145405
 C          1.4989500644        2.4739130526       -0.4522428230
 C          1.3684818496        2.5661582137        0.8833437909
 C          0.6010119621        3.6320588127        1.6124514056
 C         -0.9048795564        3.2978359698        1.5828802020
 C         -1.7571547073        4.2838260033        0.7821328465
 H         -2.7399450427        3.8255567297        0.6528571863
 H         -1.8909032416        5.1958988071        1.3684468009
 C         -1.2075042831        4.6853639925       -0.5906219601
 H         -2.0320820555        5.1404319867       -1.1434836542
 H         -0.4497850013        5.4609005330       -0.4674953245
 C         -0.6143503309        3.5489682291       -1.4341751376
 H         -1.0136794827        2.5842738858       -1.1167047894
 H         -0.9163287271        3.6979976058       -2.4731162979
 C          0.9255248385        3.4797836467       -1.4102010383
 H          1.3402944648        4.4698511880       -1.2029450783
 H          1.2829771726        3.1709789654       -2.3968107295
 H         -1.0262437984        2.2920980611        1.1733609711
 H         -1.2895102963        3.2643885453        2.6040127339
 H          0.9641106788        3.6490455670        2.6405306506
 H          0.7896828759        4.6019390757        1.1572837829
 O          1.8672808839        1.6364173621        1.7385168137
 C          2.4670343675        0.4780924649        1.2689731507
 O          2.7899680009       -0.3281733118        2.1628623992
 O          2.3271726851        1.1977537996       -2.2752201148
 C          3.2226797094       -0.9601727491       -0.6481153081
 C          2.1781778231       -2.0112243730       -0.3584596614
 C          2.3925372970       -3.1547026265        0.3980031859
 C          1.3333204711       -3.9838845892        0.7317020481
 C          0.0421533030       -3.6858320220        0.3337108945
 C         -0.1727410875       -2.5630523539       -0.4511087272
 C          0.8881859295       -1.7522616942       -0.8073286490
 H          0.7025535040       -0.8652683293       -1.4006152729
 N         -1.5078415932       -2.1903964314       -0.8035332213
 S         -2.0369813483       -0.9943753672        0.2782669453
 O         -1.4551522730        0.2877591320       -0.0603527889
 O         -1.8056558945       -1.4758995484        1.6165379083
 C         -3.7874093315       -0.9673271025       -0.0604023923
 C         -4.3516536572        0.1164478019       -0.7037508932
 C         -5.7104626673        0.0997383144       -0.9789217511
 C         -6.4749825385       -0.9969691374       -0.6121865304
 C         -5.8929015892       -2.0792200416        0.0317685460
 C         -4.5361460089       -2.0673518815        0.3114766970
 H         -4.0400305479       -2.8799507913        0.8154005151
 H         -6.4910957012       -2.9299743410        0.3155324509
 H         -7.5315468090       -1.0079223099       -0.8285315585
 H         -6.1646414694        0.9404926868       -1.4781603724
 H         -3.7183225623        0.9481949463       -0.9687565558
 H         -1.5304718037       -1.7719026108       -1.7263028868
 H         -0.7948946404       -4.2957979628        0.6307282467
 H          1.5152525185       -4.8605537557        1.3346743246
 H          3.3848699682       -3.3824258046        0.7518598533
 H          3.2877357880       -0.8226780599       -1.7372595053
 C          4.5968192836       -1.2790102679       -0.1072769272
 C          5.4918684288       -2.2157519878       -0.8614034426
 C          5.8018880067       -0.7504834158       -0.8240652112
 H          6.6423730132       -0.4138875508       -0.2362343166
 H          5.6331732423       -0.1677362904       -1.7178269528
 H          6.1239372906       -2.8874235014       -0.3009041902
 H          5.1150143561       -2.6303941763       -1.7840451571
 H          4.6271950489       -1.2983948152        0.9755826307
