  62
        -98.93837708
 C         -1.7218712324       -1.4926411143        0.3292501186
 C         -1.6100967110       -0.3147632331       -0.4474771308
 C         -2.6126730551        0.7302603607       -0.1788748434
 C         -3.5333951136        0.5304389832        0.7813413276
 C         -4.6669488246        1.4593496026        1.1112454567
 C         -5.7917058710        1.3051740658        0.0673080477
 C         -6.0291036503        2.5468741949       -0.7926941904
 H         -6.6780578255        2.2519865459       -1.6201592496
 H         -6.5679316994        3.2903314117       -0.2014972182
 C         -4.7739913065        3.2188996959       -1.3580863919
 H         -5.1058382194        3.9001229124       -2.1445282146
 H         -4.3104000262        3.8369210035       -0.5877806350
 C         -3.7112811551        2.2772978125       -1.9393440685
 H         -3.2985310334        2.7445023769       -2.8359063178
 H         -4.1622999589        1.3352430008       -2.2520179253
 C         -2.5265134317        1.9891857411       -0.9975307324
 H         -1.6235317442        1.8691341747       -1.6039246227
 H         -2.3744825388        2.8478518764       -0.3374239402
 H         -5.5484681091        0.4566949756       -0.5758453939
 H         -6.7260643980        1.0563519496        0.5727148517
 H         -5.0304472850        1.1888847431        2.1027329521
 H         -4.3085357803        2.4857899142        1.1390192897
 O         -3.5871556659       -0.6028455340        1.5276066100
 C         -2.6922520083       -1.6377448799        1.3231574666
 O         -2.8581965928       -2.6179298331        2.0755872954
 H          1.3133414737       -1.8953816968       -1.5032334362
 C          1.5538536736       -1.8052690891       -0.4563498970
 C          0.6268161522       -2.1783872407        0.5021629814
 C          0.9592177450       -2.0277288820        1.8459917095
 C          2.1916341759       -1.5237549173        2.2170097315
 C          3.1099386926       -1.1345772944        1.2563701723
 C          2.7783134317       -1.2649285919       -0.0851656032
 N          3.6767824000       -0.8227796377       -1.0703633072
 S          4.4591714881        0.6315745080       -0.8125962400
 O          4.6974696806        1.1752497354       -2.1322453745
 O          5.6410558216        0.4032420382       -0.0163243006
 C          3.3369981916        1.6829236677        0.0994858572
 C          3.8480228037        2.4255366321        1.1458769887
 C          3.0044316349        3.2663843549        1.8530865638
 C          1.6644913421        3.3463961724        1.5072712960
 C          1.1667289131        2.5937744980        0.4555621081
 C          2.0065375798        1.7571456006       -0.2622400016
 H          1.6142394628        1.1614587602       -1.0713656305
 H          0.1231066973        2.6386544508        0.1880701314
 H          1.0032560547        3.9951040963        2.0599456326
 H          3.3920226677        3.8513130993        2.6715929791
 H          4.8932364846        2.3221393532        1.3888870208
 H          3.3048537468       -0.8709340673       -2.0079291005
 H          4.0718687488       -0.7289410446        1.5263767737
 H          2.4383198113       -1.4217308940        3.2627922040
 H          0.2304178117       -2.3032982206        2.5958790503
 C         -0.7574551684       -2.6529248286        0.1367985098
 H         -1.0602866022       -3.4204227331        0.8610710676
 C         -0.8648850404       -3.2304882860       -1.2590787591
 C         -0.2807653881       -4.5803392978       -1.5449623178
 C         -1.7678748966       -4.4013182279       -1.4981622123
 H         -2.3222716623       -4.4435438985       -2.4238482623
 H         -2.3059748878       -4.7987117275       -0.6499200860
 H          0.1935555161       -5.1002998983       -0.7264452082
 H          0.1865603459       -4.7500952963       -2.5030637153
 H         -0.8170415830       -2.4805572680       -2.0393022931
 O         -0.7280177729       -0.1353270844       -1.3279385965
