  62
        -98.94006502
 C         -1.7222439341       -1.1078547400        0.3008431793
 C         -2.0435595076        0.0136255898       -0.5032687980
 C         -3.4573335089        0.1334784174       -0.8987904465
 C         -4.3451178687       -0.7873914257       -0.4843751143
 C         -5.8177066239       -0.7537979988       -0.7716123349
 C         -6.5822918958       -0.0111014234        0.3331137310
 C         -5.9789330606        1.3454675023        0.6974127298
 H         -6.6172944460        1.7899488145        1.4640421008
 H         -4.9960088108        1.1900969575        1.1482007966
 C         -5.8445589026        2.3182547949       -0.4824389156
 H         -6.4877365924        1.9974313905       -1.3027350441
 H         -6.1914234900        3.3039383524       -0.1651792256
 C         -4.4155647387        2.4952054560       -0.9996049994
 H         -4.4020401698        3.3548248759       -1.6752046996
 H         -3.7477448266        2.7258410102       -0.1654482521
 C         -3.8306779937        1.3024153141       -1.7664007024
 H         -2.9009216591        1.6357191605       -2.2375527834
 H         -4.5228653419        0.9947252284       -2.5531020768
 H         -7.6150945798        0.1239593033        0.0069244355
 H         -6.5876396453       -0.6350221727        1.2298025675
 H         -6.1812588065       -1.7814030790       -0.8247750526
 H         -5.9840228505       -0.2698805872       -1.7320583213
 O         -4.0028487560       -1.8404813141        0.3006019928
 C         -2.6959815538       -2.0161206132        0.7256311850
 O         -2.5305372489       -3.0005331986        1.4726199947
 O         -1.2100325675        0.8784485702       -0.8778100309
 C         -0.3073307440       -1.3594554862        0.7943823459
 C          0.3180796242       -0.0706404278        1.2672836291
 C         -0.2651026516        0.5992535715        2.3398598437
 C          0.2675391996        1.7862295110        2.8031188743
 C          1.4039839882        2.3193926630        2.2212641591
 C          2.0003617103        1.6534211149        1.1563895786
 C          1.4559023243        0.4658955467        0.6862544037
 H          1.8976294118       -0.0059033893       -0.1740175829
 N          3.1817884278        2.1461788053        0.5988064396
 S          3.8977660426        1.5793835345       -0.7876571930
 O          5.0577623479        2.4321669737       -0.9455909073
 O          2.9983151013        1.5375904404       -1.9157735523
 C          4.4272021922       -0.0677412036       -0.3622411568
 C          4.3015726739       -1.0735803758       -1.2995456321
 C          4.7191495849       -2.3540773140       -0.9735308706
 C          5.2574552688       -2.6047104129        0.2791495247
 C          5.3844784452       -1.5824026086        1.2072104087
 C          4.9683777265       -0.3000915593        0.8864803279
 H          5.0503644880        0.5149916226        1.5858670288
 H          5.8035257549       -1.7815901421        2.1803714784
 H          5.5782501642       -3.6028187942        0.5327252578
 H          4.6209551588       -3.1495096541       -1.6950974970
 H          3.8691855703       -0.8339233798       -2.2584751455
 H          3.4672566672        3.0731951967        0.8695970983
 H          1.8222079088        3.2465737156        2.5819281326
 H         -0.2038355878        2.3025905446        3.6260544919
 H         -1.1544607233        0.1826691177        2.7940683713
 H         -0.4262592939       -2.0151327502        1.6732032542
 C          0.5676455555       -2.1166938535       -0.1940491595
 C         -0.0236257572       -3.1115047401       -1.1462791333
 C          0.5472875639       -1.8270428814       -1.6633720680
 H          1.4808433144       -1.8591856755       -2.2055605715
 H         -0.1269548423       -1.0613491244       -2.0138117930
 H          0.5174538563       -4.0270468571       -1.3308066693
 H         -1.0971975268       -3.2319591948       -1.1440505529
 H          1.5302112120       -2.3785656720        0.2360785708
