  62
        -98.93628937
 C         -2.0277002539       -1.4995059480        0.1381085151
 C         -1.7067036585       -0.2378715886       -0.4155079400
 C         -2.8427720334        0.6559421948       -0.7098544199
 C         -4.0922313029        0.2614761924       -0.4142715081
 C         -5.3908340509        0.9888074339       -0.6571391893
 C         -5.4273644468        2.4932311207       -0.3540340764
 C         -4.5349873976        2.9439040176        0.8118424916
 H         -5.1308422645        3.5436452776        1.5023678231
 H         -4.1732266185        2.0751081574        1.3644216851
 C         -3.3451890147        3.7934743017        0.3589027242
 H         -2.9828506391        4.3724971559        1.2116734718
 H         -3.6908159303        4.5040625919       -0.3951123790
 C         -2.1545077938        3.0138008492       -0.1982655266
 H         -1.4425556932        3.7377632646       -0.6026053286
 H         -1.6510193865        2.4764639403        0.6101457242
 C         -2.4874700355        1.9920097552       -1.2971574158
 H         -3.2707353609        2.3614474869       -1.9548496656
 H         -1.5829917419        1.8310000451       -1.8907638543
 H         -5.1521351711        3.0514602825       -1.2478491715
 H         -6.4665814154        2.7447684061       -0.1355222910
 H         -6.1254905767        0.4718267348       -0.0349632397
 H         -5.6816789121        0.8263875919       -1.6992053501
 O         -4.3530468081       -0.9467835887        0.1615529820
 C         -3.3432207042       -1.8467396375        0.4530102931
 O         -3.7366718137       -2.8997424679        0.9929986909
 O         -0.5346078468        0.1400036828       -0.6670841288
 C         -0.9564189163       -2.5243872587        0.4675030187
 C          0.2113973707       -1.8635153365        1.1582362981
 C         -0.0008456022       -1.2829845068        2.4068100371
 C          1.0338743262       -0.6792573198        3.0938334139
 C          2.3055552140       -0.6425744964        2.5488535264
 C          2.5285824616       -1.2164247593        1.3035821283
 C          1.4868296852       -1.8261584469        0.6162337710
 H          1.6849462723       -2.2342213828       -0.3606366609
 N          3.8184099178       -1.2155923956        0.7354364569
 S          4.0743921075       -0.4501110448       -0.7333477210
 O          3.2376496271       -1.0358620528       -1.7461652556
 O          5.5027194425       -0.5470529438       -0.9507549065
 C          3.6432897922        1.2534538568       -0.4237386750
 C          2.3133214854        1.6151094878       -0.3478240853
 C          2.0024114660        2.9273903051       -0.0234519403
 C          3.0118369398        3.8461572601        0.2166294914
 C          4.3426398538        3.4641969478        0.1348576856
 C          4.6630483691        2.1545553475       -0.1821568809
 H          5.6824532388        1.8114466659       -0.2567929189
 H          5.1277158823        4.1796387352        0.3200969222
 H          2.7593046745        4.8641348934        0.4690582152
 H          0.9651118634        3.2149499414        0.0417757887
 H          1.5386889658        0.8897969158       -0.5394988789
 H          4.5387903302       -0.9192553483        1.3799924785
 H          3.1188374649       -0.1742200027        3.0828066213
 H          0.8509341313       -0.2328218294        4.0596022596
 H         -0.9964664486       -1.3108871425        2.8298201833
 H         -1.4298806820       -3.2060292547        1.1941347882
 C         -0.5369171002       -3.3814717304       -0.7174592883
 C         -1.5109525988       -3.7376120836       -1.7996916744
 C         -0.3636106534       -2.8211627581       -2.0953038177
 H          0.4539381631       -3.1880515685       -2.6989967579
 H         -0.5633743252       -1.7713063825       -2.2392631638
 H         -1.4882902974       -4.7399565392       -2.2002176147
 H         -2.5033420058       -3.3143339376       -1.7400064766
 H          0.1557437640       -4.1643307799       -0.4221820734
