  62
        -98.93693250
 C         -1.3406862608       -1.6327307030        0.5262374930
 C         -2.2161667464       -1.2388140992       -0.5147907611
 C         -3.1963784187       -0.1923118805       -0.1713617041
 C         -3.1667708196        0.3669369155        1.0508882381
 C         -4.0607564116        1.4767836623        1.5280491523
 C         -3.6032616411        2.8263340038        0.9397225626
 C         -4.6058924529        3.4690547273       -0.0177791592
 H         -5.4322958181        3.8887941176        0.5595610856
 H         -4.0985693102        4.2986453725       -0.5148902358
 C         -5.1988126267        2.5373529150       -1.0793025222
 H         -5.6613397517        3.1721477551       -1.8380599257
 H         -6.0025556211        1.9449631788       -0.6394000211
 C         -4.2096032909        1.5872057210       -1.7671265428
 H         -3.1953397235        1.9830969300       -1.7216872780
 H         -4.4788529708        1.5259521605       -2.8234461689
 C         -4.2186838726        0.1474481067       -1.2211480516
 H         -5.2171002223       -0.0930075357       -0.8446937741
 H         -4.0064046202       -0.5375339026       -2.0471975370
 H         -3.4037150535        3.5296043083        1.7497426779
 H         -2.6586534001        2.6662549037        0.4186768912
 H         -5.0886849914        1.2640740405        1.2418732592
 H         -4.0006928271        1.4963410912        2.6166020059
 O         -2.2478717545        0.0257612665        1.9931415386
 C         -1.3284260746       -0.9812388243        1.7619260084
 O         -0.5598891069       -1.2015847869        2.7205096630
 O         -2.2085914681       -1.7327079193       -1.6712699838
 C         -0.3076531263       -2.7384430942        0.3536407404
 C          0.8927233973       -2.1407706000       -0.3379901762
 C          0.9837768903       -2.0180544617       -1.7194292217
 C          2.0716240739       -1.3839320360       -2.2940890047
 C          3.0818959713       -0.8550509340       -1.5098063891
 C          2.9940936249       -0.9679703262       -0.1286328799
 C          1.9096009952       -1.6122840122        0.4463670750
 H          1.8316634914       -1.6799273868        1.5235818109
 N          3.9960415657       -0.3918855316        0.6801992573
 S          4.2716449423        1.2386964640        0.4081138358
 O          5.1805902074        1.3912316771       -0.6999741327
 O          4.7257517883        1.7744377636        1.6718741448
 C          2.6748498638        1.9072060381       -0.0300921264
 C          1.6405054080        1.7774902251        0.8753649893
 C          0.3847593485        2.2494786808        0.5318820143
 C          0.1864519824        2.8426307480       -0.7052126694
 C          1.2351594608        2.9692069549       -1.6023481255
 C          2.4919652026        2.4933526815       -1.2656480871
 H          3.3332851537        2.5628977107       -1.9356318361
 H          1.0743294439        3.4308314372       -2.5631340756
 H         -0.7920843871        3.2112012553       -0.9721556782
 H         -0.4298123058        2.1397742322        1.2314105242
 H          1.8153503006        1.3134873392        1.8334254393
 H          3.8509349500       -0.5581846073        1.6662296108
 H          3.9292885779       -0.3471943333       -1.9415073284
 H          2.1306817175       -1.2935253087       -3.3678934174
 H          0.1839814729       -2.3931943462       -2.3370472560
 H          0.0006282297       -3.0162380642        1.3706872773
 C         -0.8488887048       -3.9737398420       -0.3330302501
 C         -0.0674415986       -5.2485573484       -0.2398047853
 C         -1.3617242942       -5.1066584595        0.5020610048
 H         -2.2219092216       -5.6566062048        0.1509283968
 H         -1.3248882685       -4.9964814364        1.5764237416
 H         -0.0360831908       -5.8983952198       -1.1006587340
 H          0.8487660957       -5.2321039005        0.3314672940
 H         -1.3718846135       -3.7679352871       -1.2565964725
