  62
        -98.93450386
 C         -2.3476596606       -0.7388867760       -0.0939900810
 C         -3.5150249174       -1.1077546726        0.6122049785
 C         -4.7924752720       -0.6088478319        0.0740961112
 C         -4.7796115908        0.1466960998       -1.0380932514
 C         -5.9540958868        0.7946097083       -1.7182213811
 C         -6.1474992691        2.2356534073       -1.2159834937
 C         -7.0160264055        2.3712533974        0.0340787115
 H         -6.9652019101        3.4147274262        0.3533545875
 H         -8.0549616552        2.1584540000       -0.2262026888
 C         -6.6138352096        1.4772458316        1.2098738425
 H         -5.5279785451        1.4825599431        1.3210867751
 H         -7.0337101090        1.9107578983        2.1196400206
 C         -7.1170862248        0.0329263203        1.0696555311
 H         -7.8505604441       -0.0125417971        0.2649943087
 H         -7.6408172704       -0.2578892801        1.9826573340
 C         -6.0249860437       -1.0203644917        0.8328777135
 H         -5.6484581859       -1.3770950486        1.7968312091
 H         -6.4679387577       -1.8878926706        0.3323211995
 H         -5.1578666593        2.6589773487       -1.0256338654
 H         -6.6068956201        2.8250520714       -2.0120122154
 H         -5.7159787040        0.8266589521       -2.7833783674
 H         -6.8547279609        0.2044388708       -1.5779406340
 O         -3.6297188578        0.4767312663       -1.6896611135
 C         -2.3911738666        0.0515718420       -1.2417348008
 O         -1.4316239286        0.4347232446       -1.9373720488
 O         -3.4915210094       -1.8158377156        1.6558482072
 C         -1.0006362914       -1.2251944067        0.4057605375
 C         -0.0828268811       -0.0607339018        0.6844060775
 C         -0.5535495300        1.0018443389        1.4526635250
 C          0.2594890209        2.0797283572        1.7424674837
 C          1.5666932725        2.1149016094        1.2890440229
 C          2.0473439888        1.0597543734        0.5240002952
 C          1.2235671153       -0.0175788097        0.2258127724
 H          1.6253497766       -0.8200052218       -0.3695584773
 N          3.3618726345        1.0720895365        0.0315292749
 S          4.1952366951       -0.3922324370       -0.0734369368
 O          3.8617246552       -1.0363166793       -1.3187621438
 O          3.9823609772       -1.1695513617        1.1264990236
 C          5.8772912381        0.1987692653       -0.1331133296
 C          6.6191121968        0.2442055006        1.0323370166
 C          7.9153228273        0.7325316308        0.9836981766
 C          8.4439830222        1.1675559035       -0.2223014317
 C          7.6878043334        1.1148800082       -1.3839433524
 C          6.3914947414        0.6264940597       -1.3426731820
 H          5.7698811855        0.5581196223       -2.2203194600
 H          8.1033894828        1.4509724569       -2.3201978486
 H          9.4528181789        1.5473504455       -0.2578825206
 H          8.5069525950        0.7710680044        1.8840989409
 H          6.1694251109       -0.1135048600        1.9446112276
 H          3.9298540771        1.8016137288        0.4398085478
 H          2.2045353110        2.9548874354        1.5187486839
 H         -0.1233576420        2.8970169579        2.3352537562
 H         -1.5714511964        0.9696822986        1.8175924335
 H         -1.2063060754       -1.7309933228        1.3617430458
 C         -0.4161480241       -2.2357063903       -0.5584964866
 C          0.5345245338       -3.2851713306       -0.0680380410
 C         -0.8558634699       -3.6655249062       -0.4773208902
 H         -0.9915788680       -4.2162009207       -1.3959727232
 H         -1.5645356937       -3.9221226218        0.2965290577
 H          1.3607774110       -3.5673110121       -0.7039948082
 H          0.7774516510       -3.2865012368        0.9841649893
 H         -0.2472858863       -1.8190490583       -1.5460617152
