  62
        -98.93864811
 C         -1.1226075796       -1.5482772896       -0.2857982800
 C         -2.2589573295       -1.4390857397        0.5526321602
 C         -3.1851110596       -0.3242689697        0.2843643304
 C         -2.8951649997        0.5343833004       -0.7094345096
 C         -3.6811907598        1.7344694004       -1.1729633395
 C         -4.2031020397        2.6712315703       -0.0716329694
 C         -5.7239817497        2.6305678703        0.0851640708
 H         -6.1755249498        2.5772446003       -0.9076732891
 H         -6.0543760296        3.5659039603        0.5425483709
 C         -6.2558009695        1.4846095503        0.9444272908
 H         -7.3450712695        1.4859929802        0.8586693510
 H         -6.0138059394        1.6766183002        1.9920850708
 C         -5.7381556596        0.0914385103        0.5788799107
 H         -5.6959909897       -0.0310817797       -0.5025913493
 H         -6.4598844295       -0.6382830397        0.9524540307
 C         -4.3748847095       -0.2439465897        1.2018566405
 H         -4.4227688094       -1.2290891098        1.6764396905
 H         -4.1498229194        0.4626949402        2.0062432305
 H         -3.9208967297        3.6921102003       -0.3350173994
 H         -3.7219782395        2.4341941603        0.8763183505
 H         -3.0095559699        2.2777890504       -1.8409512396
 H         -4.5148005299        1.3874369304       -1.7878631594
 O         -1.7863069298        0.3952887304       -1.4873702998
 C         -0.8719144498       -0.6252888796       -1.3005653900
 O          0.0862280301       -0.5911683895       -2.0961930901
 H          2.0607374502       -1.5777386595       -1.1765818204
 C          2.0997277804       -1.5256913596       -0.1001447004
 C          1.0708749605       -2.0715588396        0.6532697797
 C          1.1295055407       -1.9597676997        2.0390239997
 C          2.1906139207       -1.3188644597        2.6525259696
 C          3.2054287806       -0.7579622097        1.8964587595
 C          3.1467777604       -0.8535059896        0.5127925295
 N          4.1439550503       -0.2301850396       -0.2712609206
 S          4.2285211703        1.4364389604       -0.1003123505
 O          4.9271119602        1.9124348505       -1.2728176806
 O          4.8420210805        1.7413164104        1.1682985494
 C          2.5371282703        2.0029210104       -0.1050711003
 C          1.8723011605        2.1566852404        1.0948361498
 C          0.5425039205        2.5436495603        1.0767353100
 C         -0.0941832197        2.7742380404       -0.1325737299
 C          0.5880924802        2.6176143904       -1.3285200900
 C          1.9145766602        2.2201485705       -1.3173072702
 H          2.4750590201        2.0848791605       -2.2284308803
 H          0.0877819401        2.7854058505       -2.2686187799
 H         -1.1302321897        3.0743610704       -0.1423579698
 H          0.0059761406        2.6612904203        2.0047654201
 H          2.4044335006        1.9797791103        2.0149159198
 H          4.0516404802       -0.4510434195       -1.2536519406
 H          4.0272994507       -0.2302330997        2.3529150095
 H          2.2247444409       -1.2465729698        3.7290138196
 H          0.3214162207       -2.3663301297        2.6302998198
 C         -0.1443444196       -2.6779083496       -0.0024797501
 H         -0.6455606395       -3.3196919097        0.7337070299
 C          0.1768581303       -3.5044923296       -1.2297014702
 C          0.8582703003       -4.8280214096       -1.0568129403
 C         -0.5789584897       -4.7741358696       -1.4772129302
 H         -0.8297631699       -5.0334892695       -2.4949079401
 H         -1.3326749897       -5.0572030496       -0.7571451101
 H          1.0802474304       -5.1457791896       -0.0493008304
 H          1.5971379902       -5.1274250595       -1.7843328805
 H          0.4374983301       -2.9122793795       -2.0974683102
 O         -2.4964662694       -2.2481569897        1.4893273902
