  62
        -98.94512695
 C          1.9868501963        0.9925541855        0.0138900537
 C          2.6660417387        0.2462409756        1.0054825317
 C          3.2591116744       -1.0195284581        0.5619776920
 C          3.0814164313       -1.4297060967       -0.7072601449
 C          3.5922487695       -2.7144350788       -1.3012477163
 C          5.0476836810       -2.6461152649       -1.7842627467
 C          6.1003066738       -2.6124072137       -0.6754925723
 H          5.9230648579       -3.4364098618        0.0163744701
 H          7.0687394864       -2.7862820425       -1.1484784447
 C          6.1603806433       -1.2892583481        0.1003527487
 H          5.6496170165       -0.5097368826       -0.4694470835
 H          7.2014831449       -0.9774208703        0.2085500808
 C          5.5580671252       -1.3496694324        1.5039884447
 H          5.6210501391       -0.3527117280        1.9473637651
 H          6.1420894075       -2.0322612940        2.1251341184
 C          4.0894142193       -1.7924969247        1.5421025401
 H          4.0122952882       -2.8618591312        1.3454536890
 H          3.6954702923       -1.5922917847        2.5418193928
 H          5.2269480026       -3.5305266209       -2.3998415661
 H          5.1618489306       -1.7674737813       -2.4231253042
 H          3.4846066478       -3.5212634280       -0.5753841743
 H          2.9522106429       -2.9336122560       -2.1588016867
 O          2.3754193545       -0.7088575294       -1.6178681224
 C          1.8160953305        0.5170483955       -1.2869951209
 O          1.2082839287        1.0707204796       -2.2217915724
 H         -0.1249772560        0.4850690554        1.6237121931
 C         -0.7479075262        1.1187090688        1.0030926106
 C         -0.1571273220        2.1576815150        0.2925162818
 C         -0.9664777059        2.9595795513       -0.4998102366
 C         -2.3261169081        2.7115069281       -0.5880982063
 C         -2.9054952266        1.6665964212        0.1082784474
 C         -2.1048115980        0.8643152242        0.9109899998
 N         -2.6901514062       -0.2205980809        1.6105024407
 S         -3.0649577525       -1.5342056086        0.6199661963
 O         -3.1953111136       -2.6642190792        1.5149700501
 O         -2.1049755859       -1.6769205810       -0.4530628681
 C         -4.6638968333       -1.1097409966       -0.0333430090
 C         -4.7998298501       -0.8144818424       -1.3753581673
 C         -6.0522508019       -0.4703676071       -1.8602403708
 C         -7.1382979183       -0.4276734603       -0.9990305760
 C         -6.9843861596       -0.7288420102        0.3463039753
 C         -5.7356243188       -1.0741448798        0.8376619941
 H         -5.5694859585       -1.3212000751        1.8728682444
 H         -7.8315548240       -0.6946007137        1.0120968470
 H         -8.1107616100       -0.1578098418       -1.3794964709
 H         -6.1733220527       -0.2353762792       -2.9054701290
 H         -3.9243512082       -0.8548029076       -2.0039663213
 H         -2.1003895142       -0.5540035193        2.3619044892
 H         -3.9629353936        1.4698066516        0.0402633089
 H         -2.9422498107        3.3392755604       -1.2133218759
 H         -0.5307233002        3.7700828586       -1.0601669990
 C          1.3395869065        2.3111264003        0.4034105228
 H          1.5904581258        2.4558570854        1.4646983698
 C          1.9055011205        3.4641337034       -0.3955407618
 C          1.8367967526        4.8570202509        0.1535685510
 C          3.1512593053        4.1407967158        0.0895889653
 H          3.8805778806        4.4607849775       -0.6393252975
 H          3.5853910195        3.7816987057        1.0113974465
 H          1.3786125966        4.9888723139        1.1219658890
 H          1.6651600485        5.6733824954       -0.5312163295
 H          1.7961503804        3.3261895334       -1.4648974981
 O          2.7618393551        0.6154821513        2.2083138030
