  62
        -98.94173658
 C          2.1150436249        0.8351652197        0.2601276467
 C          2.9830862700        0.2494991112        1.2163380235
 C          3.7474704610       -0.9191045619        0.7668054342
 C          3.5366079380       -1.4182010629       -0.4642349124
 C          4.2160096649       -2.6210165995       -1.0604774326
 C          5.5851681836       -2.3182614498       -1.6849181902
 C          6.7082165942       -2.0362238263       -0.6859131525
 H          6.7491610866       -2.8408297149        0.0489046928
 H          7.6458887460       -2.0570495947       -1.2446739941
 C          6.5921144994       -0.6847197467        0.0328362227
 H          5.8975831918       -0.0416045744       -0.5128994233
 H          7.5628134515       -0.1840444990        0.0264521537
 C          6.1403537380       -0.7783736935        1.4903952023
 H          6.8952075076       -1.3091206779        2.0745369106
 H          6.0575041970        0.2358141768        1.8896829174
 C          4.7889268273       -1.4775427411        1.6888177538
 H          4.8945065357       -2.5517592425        1.5382349896
 H          4.4558093213       -1.2979483017        2.7140096675
 H          5.4786967746       -1.4690382182       -2.3639229653
 H          5.8688613072       -3.1875334934       -2.2826393040
 H          4.3243310577       -3.3952797341       -0.3001591647
 H          3.5532957405       -2.9944563290       -1.8444294500
 O          2.6326047810       -0.8794929401       -1.3241207463
 C          1.9147474098        0.2670343735       -0.9994534536
 O          1.1498971572        0.6510608126       -1.9028979590
 H         -0.2552376301        0.1147208843        1.4906850041
 C         -0.7945961854        0.8027919303        0.8497964384
 C         -0.1229268061        1.9006782101        0.3249244889
 C         -0.8200845120        2.7663741953       -0.5061898585
 C         -2.1508132087        2.5291544215       -0.8044838673
 C         -2.8138966546        1.4347505268       -0.2814322033
 C         -2.1244027817        0.5588774170        0.5471021512
 N         -2.7901931223       -0.5553344625        1.0906043049
 S         -3.6355520056       -1.5599032752        0.0414368515
 O         -3.6756420101       -2.8443486110        0.7080376513
 O         -3.0742983375       -1.5437311915       -1.2892771831
 C         -5.2757973876       -0.8665363802        0.0266571105
 C         -5.9335786365       -0.7242397260        1.2328026235
 C         -7.2120573212       -0.1900120661        1.2383754295
 C         -7.8088969110        0.1877076911        0.0446859638
 C         -7.1368445347        0.0345131948       -1.1582382918
 C         -5.8570423722       -0.4983832654       -1.1707373916
 H         -5.2930968181       -0.6310108825       -2.0805137513
 H         -7.6022572909        0.3278434103       -2.0854782097
 H         -8.8038857671        0.6038524945        0.0517661995
 H         -7.7379297897       -0.0696353742        2.1717222962
 H         -5.4354564681       -1.0338690711        2.1362362072
 H         -2.2108721864       -1.1068764504        1.7074622083
 H         -3.8476894845        1.2436786297       -0.5185966400
 H         -2.6787144026        3.2059293086       -1.4589620617
 H         -0.3150623135        3.6114597802       -0.9439069582
 C          1.3325568857        2.0659204630        0.6831569602
 H          1.4095439654        2.0684029386        1.7838814487
 C          1.9309177912        3.3815117119        0.2087321334
 C          3.4006285334        3.5073641763       -0.0567078402
 C          2.4255473209        3.5813802694       -1.1912984762
 H          2.2599809290        4.5402789610       -1.6604856544
 H          2.3555885625        2.7460916243       -1.8701821049
 H          3.9030780937        4.4115000567        0.2527579945
 H          4.0050159732        2.6170253643        0.0411659943
 H          1.4559894114        4.2348703319        0.6829655642
 O          3.1064015847        0.6791876284        2.3945117090
