  62
        -98.94469211
 C         -2.5628447270       -0.1944543211       -0.3414950061
 C         -2.1223012612       -0.7269969748        0.8948350966
 C         -1.6389103077       -2.1146762399        0.8577262748
 C         -1.6277898176       -2.7784261463       -0.3120742493
 C         -1.1500715434       -4.1896562421       -0.4981277996
 C          0.3342369641       -4.2428873038       -0.8814805814
 C          1.2422987663       -3.4163699993        0.0294570640
 H          2.2706268985       -3.5838383737       -0.3009438152
 H          1.0353079827       -2.3533386948       -0.1181330816
 C          1.1242411416       -3.7494878318        1.5232661643
 H          0.6700428296       -4.7335257898        1.6506735533
 H          2.1293961091       -3.7958771398        1.9473350574
 C          0.3464385171       -2.7142756776        2.3388060706
 H          0.7142542481       -1.7145766434        2.0955359398
 H          0.5457438314       -2.8945055890        3.3988697480
 C         -1.1763301911       -2.7225845311        2.1514290636
 H         -1.5582491470       -3.7408059403        2.2583987064
 H         -1.6119659072       -2.1051445371        2.9424800809
 H          0.6546700517       -5.2868179404       -0.8668586141
 H          0.4438996720       -3.8658302377       -1.9013050563
 H         -1.3174703861       -4.7449062354        0.4229247542
 H         -1.7374262872       -4.6443106110       -1.2983503486
 O         -2.0426171852       -2.2268351990       -1.4832551311
 C         -2.4946875784       -0.9191926669       -1.5292647646
 O         -2.8153620810       -0.5242553076       -2.6715889254
 H         -0.4774856784        1.0262506891       -1.0818941215
 C         -0.6486731875        1.8957816645       -0.4597343368
 C         -1.9348594594        2.1775862629       -0.0142810629
 C         -2.1255894478        3.3136075519        0.7607198833
 C         -1.0537761340        4.1249081401        1.0969314223
 C          0.2297623637        3.8133834532        0.6873453490
 C          0.4277260071        2.6839363770       -0.0967673132
 N          1.7487003363        2.3028660571       -0.4731583369
 S          2.0435813011        0.6511189070       -0.5240844754
 O          1.7426703492        0.0939637812       -1.8301209030
 O          1.3994678105        0.0501957042        0.6136515475
 C          3.8094134340        0.6438025209       -0.2757878479
 C          4.2851718049        0.9823864201        0.9766019137
 C          5.6535614093        1.0054626011        1.1909631206
 C          6.5202117982        0.6914585666        0.1541664307
 C          6.0284427880        0.3516078897       -1.0965560908
 C          4.6596829201        0.3279222886       -1.3168254343
 H          4.2311879040        0.0636786810       -2.2704333797
 H          6.7036140906        0.1049375064       -1.9001562299
 H          7.5853048490        0.7096457861        0.3231654185
 H          6.0390418593        1.2670004715        2.1632305402
 H          3.5719618766        1.2103248803        1.7517432536
 H          2.0911375494        2.7657532986       -1.3030641608
 H          1.0723460937        4.4246666893        0.9667185714
 H         -1.2212360353        5.0028870039        1.7019998875
 H         -3.1155284301        3.5608069701        1.1087220441
 C         -3.0483915228        1.2420714515       -0.4204930308
 H         -3.2738889290        1.4261689857       -1.4823532556
 C         -4.3161301690        1.4258948241        0.3876032201
 C         -5.3452534324        2.4292798876       -0.0364226078
 C         -5.6161529175        0.9644580149       -0.1971095515
 H         -6.3370991384        0.4952779434        0.4551358747
 H         -5.5878710176        0.5424057719       -1.1915754349
 H         -5.8865750035        2.9664775261        0.7276005054
 H         -5.1454057820        3.0057850068       -0.9270832253
 H         -4.1581734478        1.2647846132        1.4475465786
 O         -2.1528423904       -0.0840436159        1.9763381891
