  62
        -98.93829054
 C         -2.1788732467       -0.8816767682       -0.0669777479
 C         -2.9166494435       -0.2082766254        0.9318825923
 C         -3.7594114148        0.9158183301        0.4872456801
 C         -3.7737856706        1.2538613893       -0.8160301156
 C         -4.4966800933        2.3646368166       -1.5495524769
 C         -5.6360254832        3.1309979344       -0.8826113692
 C         -6.8962672943        2.3061434928       -0.6230533850
 H         -7.5973870272        2.9230625759       -0.0568124061
 H         -7.3610002466        2.0707438905       -1.5837522394
 C         -6.6820655683        0.9892240646        0.1188600075
 H         -7.6563463746        0.5054719559        0.2292843860
 H         -6.0602107502        0.3247069320       -0.4844109312
 C         -6.0670309517        1.1154112218        1.5112425289
 H         -6.1170571817        0.1306553562        1.9837700638
 H         -6.6597316287        1.8056169300        2.1147065828
 C         -4.5977360136        1.5704231102        1.5473723521
 H         -4.5169835248        2.6533438075        1.4883244651
 H         -4.1725162497        1.2630211202        2.5075644475
 H         -5.2902183575        3.5981386249        0.0348671245
 H         -5.9072843283        3.9403614769       -1.5659205787
 H         -3.7209333732        3.0817773318       -1.8401856803
 H         -4.8632915384        1.9163589038       -2.4784110568
 O         -3.0145943476        0.5936134557       -1.7396377031
 C         -2.2115743486       -0.4837118952       -1.4021624825
 O         -1.5922408471       -0.9830760292       -2.3591625149
 H          0.0485313833        0.1959684940        0.7043363767
 C          0.6786652611       -0.5635098992        0.2560679269
 C          0.1339411331       -1.8094851493       -0.0306161743
 C          0.9600708677       -2.7767365446       -0.5878128931
 C          2.2859558247       -2.4921306321       -0.8661841530
 C          2.8172448933       -1.2451771148       -0.5952266368
 C          2.0038634671       -0.2732460990       -0.0271123036
 N          2.5370659389        1.0013266509        0.2473241492
 S          3.8826555435        1.0669406225        1.2549481149
 O          3.8996659048       -0.0417104308        2.1815046923
 O          3.8564308015        2.3912782136        1.8369672316
 C          5.2654097276        0.9504857181        0.1399724835
 C          6.1749890711       -0.0797139713        0.2777033874
 C          7.2492948437       -0.1457094155       -0.5959256508
 C          7.3942776826        0.8146994782       -1.5853605576
 C          6.4731942358        1.8445045093       -1.7084280621
 C          5.3976034096        1.9169946690       -0.8377513581
 H          4.6625315602        2.7024595268       -0.8956388618
 H          6.5894678657        2.5897094439       -2.4788273857
 H          8.2303991427        0.7609710408       -2.2645696410
 H          7.9667432827       -0.9449152452       -0.5015867063
 H          6.0181386318       -0.8057207064        1.0593396560
 H          1.8428872343        1.6652787399        0.5597492667
 H          3.8462511753       -1.0167205487       -0.8196552792
 H          2.9134424635       -3.2527268110       -1.3048896649
 H          0.5648497260       -3.7547702770       -0.8076086978
 C         -1.3114819901       -2.0631765864        0.3221412771
 H         -1.3830783287       -2.1300981100        1.4188161214
 C         -1.8659916105       -3.3383563225       -0.2790890251
 C         -1.7016132231       -4.6474136287        0.4319025735
 C         -3.0464011444       -3.9892726048        0.3753740196
 H         -3.8103783352       -4.4233378891       -0.2519674990
 H         -3.4301616750       -3.5281955320        1.2739949958
 H         -1.1751629468       -4.6421566381        1.3744775985
 H         -1.5445060013       -5.5381887351       -0.1574226685
 H         -1.8342502536       -3.3331478754       -1.3629172900
 O         -2.8666886300       -0.5239559241        2.1526620182
