  62
        -98.94079419
 C          2.5248246438       -0.2893395312       -0.0304207894
 C          2.1645051719       -1.3084651670        0.8778757159
 C          1.4179113637       -2.4591092759        0.3357426667
 C          1.1506078631       -2.4916551036       -0.9831333486
 C          0.3671394314       -3.5169891950       -1.7607678977
 C         -1.1457169874       -3.3695243127       -1.5555483179
 C         -1.5844959586       -3.2966053933       -0.0959296655
 H         -1.1774867962       -2.3884700999        0.3539062244
 H         -2.6731594094       -3.1885370276       -0.0848523793
 C         -1.2258218952       -4.5109733786        0.7593646661
 H         -1.7382944343       -4.3851323118        1.7163050428
 H         -1.6217351010       -5.4115649820        0.2849150842
 C          0.2639123885       -4.7218184974        1.0517911898
 H          0.7654423659       -5.2335717072        0.2341310875
 H          0.3335575891       -5.3829256288        1.9203395235
 C          1.0250831049       -3.4489221713        1.4056961586
 H          1.9615407613       -3.7234954922        1.9060888724
 H          0.4554579028       -2.8809446017        2.1513416149
 H         -1.6429009937       -4.2070721969       -2.0494592720
 H         -1.4636509207       -2.4422072967       -2.0395439593
 H          0.5926064011       -3.3434917837       -2.8156085517
 H          0.6926487171       -4.5218591463       -1.5093549417
 O          1.5676481141       -1.5092192288       -1.8328884543
 C          2.1994623758       -0.3675957140       -1.3837219608
 O          2.4396726933        0.4747281337       -2.2715816803
 O          2.4411724874       -1.2570027063        2.1094806040
 C          3.1270728548        0.9991351041        0.5031358716
 C          2.1272916023        2.1057520271        0.2630989806
 C          2.4453105035        3.3483834940       -0.2677463348
 C          1.4455188845        4.2715070668       -0.5270842309
 C          0.1170074915        3.9708470740       -0.2885353633
 C         -0.2080452259        2.7363269558        0.2631741373
 C          0.7981781140        1.8359231465        0.5629335763
 H          0.5335516798        0.8829671673        0.9973767652
 N         -1.5412879239        2.3710938390        0.5282936967
 S         -1.9372193097        0.7430719396        0.2716427547
 O         -1.6053735442       -0.0031831495        1.4600270089
 O         -1.3662009016        0.2780136367       -0.9709140663
 C         -3.7110307930        0.8648899864        0.1316910086
 C         -4.3010490850        0.8294043204       -1.1171615390
 C         -5.6782547163        0.9569013154       -1.2120089261
 C         -6.4368607154        1.1205383643       -0.0628082301
 C         -5.8303127898        1.1533479946        1.1843327651
 C         -4.4543753418        1.0242973460        1.2861317753
 H         -3.9385412465        1.0333979940        2.2320460704
 H         -6.4234350989        1.2777454471        2.0758449268
 H         -7.5079768224        1.2203736993       -0.1395068095
 H         -6.1520894892        0.9280746802       -2.1799255389
 H         -3.6696848761        0.6946391165       -1.9810098344
 H         -2.2089802764        2.9862792381        0.0824658450
 H         -0.6612372377        4.6793612462       -0.5283625019
 H          1.7042236184        5.2317875914       -0.9470799940
 H          3.4711549133        3.5875588055       -0.4959426065
 H          3.2285977393        0.8496002475        1.5888386470
 C          4.4929755226        1.2697216355       -0.0874849496
 C          5.5013038405        2.0677411322        0.6828147242
 C          5.6880185783        0.5913175465        0.5099628107
 H          6.4654598746        0.2411029585       -0.1520490376
 H          5.5172144386       -0.0510858557        1.3615729264
 H          6.1562635113        2.7321494131        0.1398543861
 H          5.2118139512        2.4298932741        1.6576982002
 H          4.4642981491        1.3776486380       -1.1657123082
