  62
        -98.94185459
 C         -2.7767501910       -0.3012027625       -0.2483762303
 C         -2.0518341148        0.5320571192       -1.1349115324
 C         -2.0663502401        1.9696162758       -0.8270783729
 C         -2.7641030678        2.4181568364        0.2305722807
 C         -2.8275882592        3.8487965743        0.6786885876
 C         -1.7439809227        4.1619741164        1.7194026517
 C         -0.3402551345        3.7057713528        1.3194773492
 H          0.3424610063        4.0319726948        2.1077273561
 H         -0.2986546896        2.6132992466        1.3031087313
 C          0.1477765827        4.2450658308       -0.0320511994
 H          1.1827796040        4.5743719582        0.0809200544
 H         -0.4423710647        5.1158244898       -0.3217219484
 C          0.1279555118        3.2129599625       -1.1613028329
 H          0.5980723986        2.2906162203       -0.8080474311
 H          0.7274755941        3.6005932322       -1.9898097726
 C         -1.2596232590        2.8695880124       -1.7197898862
 H         -1.8064730166        3.7883365775       -1.9415765198
 H         -1.1189268706        2.3184441658       -2.6540916940
 H         -1.7394327448        5.2395095943        1.8954992083
 H         -2.0085124141        3.6655627049        2.6560602831
 H         -2.7135794469        4.4992408243       -0.1863458869
 H         -3.8074657295        4.0232036774        1.1268150676
 O         -3.4773879406        1.5957430542        1.0415586718
 C         -3.4738481320        0.2272652545        0.8433120152
 O         -4.1359340246       -0.4105150781        1.6872256370
 O         -1.4143556209        0.1240853941       -2.1441162253
 C         -2.7980769008       -1.8216002066       -0.3502977845
 C         -1.5299326705       -2.3572447084        0.2707775793
 C         -1.5547638599       -3.1213449663        1.4312577846
 C         -0.3763308111       -3.5125344311        2.0445461506
 C          0.8496046604       -3.1320847829        1.5269421400
 C          0.8804884161       -2.3733976721        0.3657642638
 C         -0.2975501379       -2.0139909573       -0.2664337570
 H         -0.2587774198       -1.4099703060       -1.1607843385
 N          2.1273032471       -1.9019799046       -0.1320395793
 S          2.6226291773       -0.5597541214        0.7830060161
 O          2.9322548411       -1.0250198705        2.1117198249
 O          1.6414831600        0.4998022791        0.6934280015
 C          4.1221720103       -0.0935574384       -0.0599190331
 C          4.1211408162        1.0009761591       -0.9022199981
 C          5.2886485329        1.3299674102       -1.5735804356
 C          6.4276541009        0.5597471661       -1.3950896109
 C          6.4115987126       -0.5381244819       -0.5472418978
 C          5.2487694716       -0.8711584212        0.1283339997
 H          5.1895397616       -1.7091846375        0.8025251511
 H          7.2998315536       -1.1336247237       -0.4110810560
 H          7.3340744784        0.8180603001       -1.9194411323
 H          5.3034871646        2.1838062913       -2.2317505255
 H          3.2129758756        1.5734810387       -1.0078893844
 H          2.0147222720       -1.5777858691       -1.0864874974
 H          1.7730723316       -3.3859614326        2.0208986033
 H         -0.4137275980       -4.1021327456        2.9481788099
 H         -2.5071924166       -3.3821981949        1.8700620133
 H         -3.6428155453       -2.1518498972        0.2687800463
 C         -3.0028413939       -2.3401276874       -1.7591264211
 C         -3.5159862717       -3.7348103145       -1.9484762453
 C         -4.3963754843       -2.5629627538       -2.2608471488
 H         -4.6127360661       -2.3376404704       -3.2941956403
 H         -5.2110345703       -2.3420451156       -1.5863575273
 H         -3.1270083232       -4.3187881580       -2.7682614682
 H         -3.7359643622       -4.3111518929       -1.0625548809
 H         -2.2747565545       -1.9688844804       -2.4674615029
