  62
        -98.94616553
 C         -1.5270219512       -1.4680651662       -0.0557785043
 C         -1.4953060497       -0.1101150579        0.3450171868
 C         -2.7884390438        0.4686808651        0.7377294220
 C         -3.8893925787       -0.3044129109        0.7210130952
 C         -5.2761067766        0.1750767037        1.0368535147
 C         -5.9960760101        0.6631160954       -0.2283475101
 C         -5.1709968331        1.6323446985       -1.0752006725
 H         -4.3048357757        1.1030956795       -1.4788633351
 H         -5.7905086831        1.9288448619       -1.9245006478
 C         -4.6960836907        2.8853406521       -0.3261329147
 H         -4.8707061681        3.7581117548       -0.9589872521
 H         -5.2871795428        3.0202506652        0.5804294761
 C         -3.2090759049        2.8836630986        0.0336686633
 H         -2.6174026496        2.6550632673       -0.8559816620
 H         -2.9401219978        3.8915179338        0.3606006280
 C         -2.7956053223        1.9143183100        1.1477897730
 H         -3.4327823831        2.0644554710        2.0215675698
 H         -1.7635224072        2.1464898378        1.4265257280
 H         -6.2409555554       -0.2056597426       -0.8439700732
 H         -6.9309334575        1.1415634135        0.0695608538
 H         -5.8389173494       -0.6552310452        1.4667339256
 H         -5.2190845315        0.9792475959        1.7679230401
 O         -3.8716589000       -1.6151556641        0.3642949797
 C         -2.6954226952       -2.2274028021       -0.0404189339
 O         -2.8181863379       -3.4312185674       -0.3464260133
 O         -0.4467261992        0.5814169211        0.3735719871
 C         -0.2430108272       -2.1336296171       -0.5182743653
 C          0.8268743924       -1.9431774872        0.5280786044
 C          0.5613608862       -2.3317604277        1.8391439237
 C          1.4962179128       -2.1359172613        2.8364015993
 C          2.7096819802       -1.5331693974        2.5526061299
 C          2.9890610208       -1.1545277695        1.2456086863
 C          2.0587835358       -1.3794055908        0.2398197609
 H          2.3131182766       -1.0979384616       -0.7671909958
 N          4.2113808219       -0.5518135427        0.9232825811
 S          4.3411127307        0.5252970653       -0.3444602998
 O          4.3562489450       -0.1880389609       -1.5981068138
 O          5.5435796983        1.2743089878       -0.0413539665
 C          2.9302079208        1.6134530954       -0.2726680154
 C          2.1664385231        1.8032869746       -1.4048734826
 C          1.0967225689        2.6806068536       -1.3536934360
 C          0.8089457674        3.3484702581       -0.1754932293
 C          1.5865175658        3.1483990862        0.9532564764
 C          2.6594218018        2.2748042176        0.9073687489
 H          3.2824840288        2.1021240619        1.7702507386
 H          1.3537552533        3.6641922135        1.8713621233
 H         -0.0329168340        4.0218837838       -0.1356080168
 H          0.4844536438        2.8310966301       -2.2292154962
 H          2.4193070858        1.2564515088       -2.3001722549
 H          4.7869660513       -0.2891648155        1.7089223866
 H          3.4337498999       -1.3607491238        3.3341022297
 H          1.2746771458       -2.4410380392        3.8481786352
 H         -0.3964732263       -2.7810368986        2.0655756300
 H         -0.4619410774       -3.2074501214       -0.6071084695
 C          0.1480220346       -1.5964009043       -1.8794053741
 C          0.9895774411       -2.4210052777       -2.8048726508
 C         -0.4604670617       -2.1954188597       -3.1098172115
 H         -0.7209313130       -1.5411158245       -3.9283045900
 H         -1.1472392457       -3.0183061738       -2.9736389664
 H          1.7325482261       -1.9231867330       -3.4103376064
 H          1.2897126461       -3.4012342388       -2.4661881106
 H          0.3020807278       -0.5227468184       -1.8708391009
