  62
        -98.93070244
 C         -2.3093255465       -1.1611716232        0.1325330599
 C         -2.2692659353       -0.0135647013       -0.6950399422
 C         -2.8867168072        1.2090790486       -0.1460823715
 C         -3.3877565132        1.2022877501        1.0996786559
 C         -4.0028904422        2.3422613255        1.8722640764
 C         -4.9851565545        3.2567338731        1.1264059298
 C         -5.8156144408        2.5670333127        0.0341217130
 H         -5.7138588749        1.4834906711        0.1153065838
 H         -6.8694141423        2.8075648870        0.1860095432
 C         -5.4316234551        3.0124473958       -1.3790583922
 H         -6.2623307051        2.7929411026       -2.0539671729
 H         -5.2889093429        4.0951824308       -1.3775455208
 C         -4.1866333289        2.3453858202       -1.9624075438
 H         -3.9581412579        2.8323846746       -2.9133843258
 H         -4.3978252524        1.2954631100       -2.1827081429
 C         -2.9336931799        2.3904485130       -1.0723990196
 H         -2.0565627685        2.3019684715       -1.7192193443
 H         -2.8680291239        3.3295374905       -0.5283411479
 H         -5.6529196535        3.6801990610        1.8784804667
 H         -4.4416342738        4.0910024100        0.6849858865
 H         -4.5107932758        1.8699198774        2.7165979319
 H         -3.1901450323        2.9478810016        2.2844636995
 O         -3.3630868064        0.0863874954        1.8829277812
 C         -2.8396645576       -1.1075050351        1.4236549908
 O         -2.9073285403       -2.0444995767        2.2448713108
 H          0.1991946003       -0.7702295600       -0.9513003090
 C          0.5836750515       -1.5796055866       -0.3472650454
 C         -0.2797466953       -2.5830970191        0.0714599501
 C          0.2310478014       -3.6152392505        0.8483041607
 C          1.5708804921       -3.6380007325        1.1972306147
 C          2.4265849612       -2.6337321117        0.7808596975
 C          1.9235095743       -1.5973926331        0.0062128496
 N          2.7884387328       -0.5549731811       -0.4139795056
 S          3.2341719116        0.5208401889        0.8143836241
 O          3.6586647756       -0.2400058586        1.9612557991
 O          2.1744192026        1.4837081244        1.0381756695
 C          4.6375055222        1.3213519932        0.0630221294
 C          5.8331493379        0.6311279695        0.0111808655
 C          6.9245693335        1.2274056119       -0.5992372736
 C          6.8022952145        2.4963246550       -1.1461329585
 C          5.5954874487        3.1762162442       -1.0865126523
 C          4.4993769566        2.5843070622       -0.4781278427
 H          3.5433983503        3.0776222211       -0.4035135150
 H          5.5029933067        4.1630078172       -1.5109562002
 H          7.6532396689        2.9591201844       -1.6205141292
 H          7.8650026052        0.7025807613       -0.6467895823
 H          5.8830034995       -0.3489027334        0.4555440049
 H          2.3493511624       -0.0027657033       -1.1413664023
 H          3.4654503517       -2.6290933650        1.0655614246
 H          1.9517588278       -4.4446771546        1.8049901509
 H         -0.4342601006       -4.3917399379        1.1971680841
 C         -1.7438557858       -2.5124830925       -0.2789224792
 H         -2.2697252927       -3.2470005245        0.3513700464
 C         -2.0363622138       -2.8662613140       -1.7310385814
 C         -0.9817566667       -2.9845166575       -2.7862752152
 C         -1.6491453666       -4.2163269878       -2.2585167844
 H         -2.3454688308       -4.7444974560       -2.8918826111
 H         -1.0719654844       -4.8538149938       -1.6056186101
 H         -1.2299335104       -2.6402682469       -3.7786189371
 H          0.0443912256       -2.8033490384       -2.5078733707
 H         -2.9952345656       -2.4754749586       -2.0556809910
 O         -1.7392247184        0.0191139090       -1.8360961651
