  62
        -98.94472280
 C         -2.0233220238       -1.3700320259        0.3039535038
 C         -2.6531332620       -0.7537705001       -0.8044552490
 C         -3.7988378486        0.1118139503       -0.4876375521
 C         -4.1795422887        0.2620345029        0.7941005807
 C         -5.2888325057        1.1590397944        1.2602151107
 C         -4.7612070834        2.5590637482        1.6045434147
 C         -3.8692973457        3.1670968903        0.5216734382
 H         -3.5795615778        4.1643973869        0.8602812535
 H         -2.9523213385        2.5783331177        0.4398429268
 C         -4.5283611800        3.2680057780       -0.8610973997
 H         -4.3144458339        4.2539816773       -1.2790725874
 H         -5.6113631132        3.1862532453       -0.7616869627
 C         -4.0332766620        2.2368070763       -1.8771856202
 H         -4.3956579658        2.5329735890       -2.8651968292
 H         -2.9405470258        2.2517335134       -1.9129383300
 C         -4.4880914386        0.7916056347       -1.6368227736
 H         -5.5721690633        0.7629247406       -1.5101104959
 H         -4.2291324398        0.2108931361       -2.5269578355
 H         -4.1814550022        2.4935768852        2.5283375157
 H         -5.6142612787        3.2154035316        1.7854453747
 H         -6.0466664875        1.2260242698        0.4822941179
 H         -5.7353568274        0.7192497059        2.1535892647
 O         -3.5528066055       -0.3516895071        1.8306330886
 C         -2.4520175357       -1.1656404878        1.6146102047
 O         -1.9467510480       -1.6360270646        2.6547793079
 H          0.0507050026        0.1506804067        0.7586881426
 C          0.6024807227       -0.2304488305       -0.0924656648
 C          0.2846497960       -1.4873272554       -0.5938372540
 C          1.0138500100       -1.9722862447       -1.6710169670
 C          2.0065957252       -1.2000650453       -2.2506227227
 C          2.3003317378        0.0608225651       -1.7667799774
 C          1.5926473119        0.5460960029       -0.6735247961
 N          1.8946348904        1.8182535221       -0.1602219372
 S          3.5049092404        2.2426110488        0.0029094807
 O          3.5344329807        3.2006597607        1.0859222411
 O          4.0144869571        2.7096722064       -1.2623058005
 C          4.3465281821        0.7406546580        0.4718616201
 C          3.9442671230        0.1019024341        1.6281780967
 C          4.5686998998       -1.0795020201        1.9931990228
 C          5.5805652360       -1.5991171529        1.2000707192
 C          5.9770504111       -0.9429052697        0.0454237716
 C          5.3540610358        0.2379629428       -0.3258694651
 H          5.6281922721        0.7789592050       -1.2168791825
 H          6.7655045110       -1.3481392379       -0.5679505642
 H          6.0621374962       -2.5207504850        1.4862077330
 H          4.2606189363       -1.5906382156        2.8913054550
 H          3.1572532119        0.5327066961        2.2267540630
 H          1.3603122611        2.0726662971        0.6568616774
 H          3.0542093231        0.6821542578       -2.2221979160
 H          2.5559128888       -1.5842325916       -3.0962964706
 H          0.7976093041       -2.9508566037       -2.0661965963
 C         -0.8171450621       -2.2655570343        0.0848617110
 H         -0.4645797871       -2.5503247304        1.0871041612
 C         -1.2240581962       -3.5188375290       -0.6615715144
 C         -0.4809102008       -4.8018233912       -0.4452748315
 C         -1.8654145333       -4.6361470604        0.1032600948
 H         -2.6751681406       -5.1800155839       -0.3595477594
 H         -1.9841623106       -4.5023370540        1.1689654765
 H          0.3432191979       -4.7914661181        0.2516914569
 H         -0.3416209772       -5.4652353214       -1.2854401967
 H         -1.6078750198       -3.3064171633       -1.6526151200
 O         -2.2789327727       -0.9137954147       -1.9947669051
