  62
        -98.93945559
 C         -1.9107846556       -0.8575176732        0.2487037177
 C         -2.2931586448        0.1684383697        1.1485194234
 C         -2.7384317974        1.4311012104        0.5464819931
 C         -2.6918120996        1.5710140920       -0.7905799911
 C         -3.1617204127        2.7809320365       -1.5441122528
 C         -4.6405789102        2.6520696305       -1.9363445855
 C         -5.5527076441        2.2383934765       -0.7814466656
 H         -6.5735468323        2.2077497899       -1.1680548734
 H         -5.2958314690        1.2229242300       -0.4710982078
 C         -5.4950330885        3.1693313941        0.4377007493
 H         -5.0567275271        4.1262887936        0.1525863739
 H         -6.5140388825        3.3664324465        0.7769394248
 C         -4.7302328156        2.6001826357        1.6342018638
 H         -5.1050721707        1.6003350574        1.8676377737
 H         -4.9315092645        3.2353187086        2.5009051763
 C         -3.2067225548        2.5171310117        1.4737562967
 H         -2.7794025689        2.2781644034        2.4523947341
 H         -2.8146034753        3.4865077170        1.1583240200
 H         -4.7244029730        1.9008083813       -2.7249372852
 H         -4.9742607524        3.6092276791       -2.3409318888
 H         -3.0123791339        3.6652643428       -0.9274564494
 H         -2.5594591123        2.8754151301       -2.4492229239
 O         -2.2494761566        0.5926851333       -1.6192713188
 C         -1.8456063814       -0.6422919972       -1.1285795683
 O         -1.4643724472       -1.4325058248       -2.0121753478
 O         -2.2638516178        0.0317775505        2.4026907330
 C         -1.4466572809       -2.1757083220        0.8398837013
 C         -0.1276537078       -2.5873650250        0.2330460865
 C          0.1342716920       -3.8570834907       -0.2626877262
 C          1.3809716001       -4.1599664460       -0.7837338444
 C          2.3842714764       -3.2115650555       -0.8235630794
 C          2.1278664735       -1.9310139182       -0.3410755529
 C          0.8870398712       -1.6374851065        0.1959308356
 H          0.6984502732       -0.6439516262        0.5791361589
 N          3.1131371040       -0.9344518702       -0.4282896543
 S          3.0134629899        0.4729171964        0.4812179821
 O          2.8963606909        0.1640231421        1.8902251835
 O          1.9888033694        1.3215089724       -0.0764956761
 C          4.6216459247        1.1630788342        0.1409421508
 C          5.6257051547        1.0568165038        1.0844313076
 C          6.8783557925        1.5735714392        0.7917671064
 C          7.1051268207        2.1815981337       -0.4336255902
 C          6.0872099229        2.2812268044       -1.3708545335
 C          4.8324425291        1.7679130228       -1.0840123973
 H          4.0083180421        1.8284688787       -1.7759559366
 H          6.2661389761        2.7564204874       -2.3218520340
 H          8.0804490838        2.5828144530       -0.6593502795
 H          7.6704541802        1.5001923657        1.5192849558
 H          5.3996925084        0.5817004949        2.0254294209
 H          4.0543450834       -1.2953026238       -0.4896986018
 H          3.3524973325       -3.4477934288       -1.2371869000
 H          1.5716544195       -5.1510358683       -1.1667806373
 H         -0.6395818153       -4.6066933592       -0.2579403490
 H         -1.2593179017       -1.9419208409        1.9029844388
 C         -2.4977787796       -3.2764518210        0.8186578548
 C         -3.9561785282       -2.9550819503        0.6905513565
 C         -3.2403082416       -3.6444986032       -0.4298110574
 H         -3.4568357293       -4.6875132572       -0.6088205808
 H         -3.0167794001       -3.0821633730       -1.3225280121
 H         -4.6593273728       -3.5214458795        1.2827753530
 H         -4.2303878159       -1.9180156404        0.5599352037
 H         -2.2486134945       -4.0890369176        1.4942738555
