  62
        -98.93472550
 C          2.6470438265        0.9730404368        0.7252978833
 C          2.9452991668       -0.2845846013        1.3111923143
 C          4.2781489746       -0.8313097016        1.0405365552
 C          5.1438785683       -0.1278087671        0.2888949538
 C          6.5527253594       -0.5308956084       -0.0530140059
 C          6.6586581087       -1.4763716719       -1.2572863028
 C          6.1876300499       -2.9087708316       -1.0028443928
 H          6.5187341589       -3.5103556793       -1.8516876134
 H          6.6826816663       -3.3003723471       -0.1136804425
 C          4.6667450239       -3.0578193290       -0.8559292137
 H          4.1723660822       -2.1679622558       -1.2529878960
 H          4.3239697113       -3.9054697605       -1.4536687082
 C          4.1874545998       -3.2909688917        0.5769553286
 H          4.5662118988       -4.2495076225        0.9386800141
 H          3.0955540579       -3.3409745179        0.5679760497
 C          4.6032762614       -2.1960146679        1.5679465470
 H          4.0387853055       -2.3377879356        2.4927459590
 H          5.6671583469       -2.2744024780        1.7910494217
 H          7.7096432759       -1.5092771613       -1.5536959612
 H          6.0924249567       -1.0489908470       -2.0880855009
 H          7.0219122486       -0.9930226698        0.8160867739
 H          7.0899271463        0.3898912011       -0.2903683659
 O          4.8291871947        1.0810274320       -0.2430395927
 C          3.5722864988        1.6528995451       -0.0682037264
 O          3.4376880476        2.7405488770       -0.6568342321
 O          2.1327846284       -0.9143101660        2.0407694527
 C          1.2625118336        1.5311945789        1.0004129671
 C          0.2833255265        1.0894670146       -0.0578897535
 C          0.5542138533        1.2639728743       -1.4112581643
 C         -0.3611354725        0.8586796568       -2.3658198276
 C         -1.5558930237        0.2668731763       -1.9951069176
 C         -1.8343852690        0.0828254348       -0.6474531460
 C         -0.9172736442        0.5002667219        0.3100993058
 H         -1.1314653324        0.3462357074        1.3591899271
 N         -3.0340383046       -0.5415639976       -0.2612740156
 S         -4.4500943440       -0.0482667064       -1.0427177593
 O         -4.5244650848       -0.7143120329       -2.3184610172
 O         -4.5141406075        1.3957823435       -1.0782722052
 C         -5.6890918676       -0.7034811895        0.0567010881
 C         -6.0439641998       -2.0340143071       -0.0602406082
 C         -6.9880824436       -2.5535535933        0.8109402210
 C         -7.5572003417       -1.7393846456        1.7790775522
 C         -7.1916488037       -0.4056954679        1.8831256658
 C         -6.2472808543        0.1203972963        1.0156339143
 H         -5.9402929923        1.1533949655        1.0541786028
 H         -7.6381439757        0.2251677865        2.6347990151
 H         -8.2927647846       -2.1459268718        2.4550811640
 H         -7.2771814354       -3.5891103977        0.7319092036
 H         -5.5817447750       -2.6260968203       -0.8326974591
 H         -3.1566401131       -0.5410828427        0.7424590634
 H         -2.2764154885       -0.0493128389       -2.7320109526
 H         -0.1419582551        1.0044403968       -3.4132910342
 H          1.4849272711        1.7260249969       -1.7052988296
 H          0.9572606264        1.0549514885        1.9460375357
 C          1.2488383085        3.0353497470        1.2323780862
 C          0.6739898532        4.0240282951        0.2679940532
 C         -0.0400067859        3.7341073348        1.5519429389
 H         -0.0447489523        4.4859416056        2.3263715024
 H         -0.9487807492        3.1536766340        1.4914153310
 H          1.1876125658        4.9663880167        0.1550153075
 H          0.2422071128        3.6553583788       -0.6490815295
 H          2.1260774082        3.3627609463        1.7813929573
