  62
        -98.94014237
 C          2.4319081469        0.9930680438        0.0304667857
 C          3.6851033408        0.9001176123        0.6906727250
 C          4.6890931503        0.0365110174        0.0607374993
 C          4.3865778478       -0.6160874144       -1.0757746269
 C          5.3073626983       -1.5175750895       -1.8524646317
 C          5.3546851143       -2.9598033679       -1.3296155160
 C          6.0998189065       -3.1479611311       -0.0075526510
 H          6.2443814510       -4.2215792581        0.1284159836
 H          7.0883671830       -2.6934859515       -0.0808156639
 C          5.3641559425       -2.5904066055        1.2190759171
 H          4.3125758294       -2.4283058800        0.9708431905
 H          5.3919300660       -3.3261520348        2.0260248112
 C          5.9483684430       -1.2903197747        1.7719752451
 H          5.3300815197       -0.9672096986        2.6133992954
 H          6.9580166409       -1.4722338759        2.1469049392
 C          6.0043448678       -0.1405134995        0.7575550327
 H          6.7984417163       -0.3168628848        0.0322172786
 H          6.2223676890        0.7835813303        1.2986483598
 H          4.3311223890       -3.3275294626       -1.2268332953
 H          5.8507937602       -3.5659678070       -2.0911394512
 H          6.3135704604       -1.0974351708       -1.8575042304
 H          4.9323922735       -1.5356031349       -2.8780792900
 O          3.1720920667       -0.5112089501       -1.6736769102
 C          2.1565115541        0.2703957759       -1.1319998969
 O          1.0976493263        0.2279943588       -1.7841387883
 O          3.9520557715        1.5129006001        1.7584803256
 C          1.3684150689        1.8608928681        0.6807828057
 C          0.0808609639        1.0895539890        0.8154157888
 C         -0.0122678644        0.0945322865        1.7843301488
 C         -1.1686465481       -0.6485447312        1.9254307571
 C         -2.2546824667       -0.4207149555        1.0984777892
 C         -2.1715250669        0.5671649023        0.1271330512
 C         -1.0129120409        1.3225853353       -0.0023830393
 H         -0.9532643422        2.0752702329       -0.7732804898
 N         -3.2586639492        0.7844441659       -0.7330179330
 S         -4.8018530933        0.9041233067       -0.0976441323
 O         -5.5541728121        1.6679042904       -1.0692567837
 O         -4.7811865272        1.4259564477        1.2496037625
 C         -5.3993791557       -0.7732887274       -0.0926950479
 C         -5.3445151104       -1.4873686525       -1.2735148368
 C         -5.8166703811       -2.7899541383       -1.2901735984
 C         -6.3355866433       -3.3524294380       -0.1334110394
 C         -6.3863043378       -2.6214837332        1.0434680460
 C         -5.9148426613       -1.3180499792        1.0669171210
 H         -5.9290075125       -0.7140688712        1.9602218927
 H         -6.7896548766       -3.0608172860        1.9416636542
 H         -6.7022032114       -4.3666834840       -0.1496899867
 H         -5.7778105814       -3.3616436894       -2.2034647644
 H         -4.9350749829       -1.0148373163       -2.1508676430
 H         -3.0892839775        1.4764422326       -1.4474510886
 H         -3.1580978220       -1.0000807869        1.1978438760
 H         -1.2254554092       -1.4160705912        2.6824236539
 H          0.8395729640       -0.0919941066        2.4242188720
 H          1.7575415375        2.0481316228        1.6952738813
 C          1.1823627754        3.2268541393        0.0373253392
 C          2.3580111885        3.9758717150       -0.5131708900
 C          1.2966534554        3.4635644360       -1.4376385409
 H          0.6259861618        4.1793489902       -1.8914018981
 H          1.5242095541        2.6198587540       -2.0696642928
 H          2.4213636923        5.0391130756       -0.3372830273
 H          3.3139805403        3.4728333295       -0.5062793561
 H          0.4388701578        3.8177207346        0.5651370489
