  62
        -98.94301036
 C         -2.0289169301       -0.2256222985        0.9718443483
 C         -2.8883807648       -1.1110874494        0.2758048283
 C         -4.2883863006       -0.6804146501        0.1560663235
 C         -4.6878763767        0.4825058855        0.6993690275
 C         -6.0829859298        1.0448968906        0.6696058148
 C         -6.4177419677        1.8138042109       -0.6159487418
 C         -6.6185653040        0.9465824787       -1.8594503186
 H         -7.3406338355        0.1597068956       -1.6390924954
 H         -7.0581202264        1.5861107776       -2.6275398751
 C         -5.3289872864        0.3249401501       -2.4136504256
 H         -4.4644211965        0.8523783975       -2.0035189478
 H         -5.2983350114        0.4568185464       -3.4975926334
 C         -5.1754312568       -1.1701644295       -2.1345240876
 H         -4.2135373082       -1.4961619906       -2.5377195787
 H         -5.9627382027       -1.7222079105       -2.6525514044
 C         -5.2161125397       -1.5422546341       -0.6466851320
 H         -6.2339874726       -1.4628709581       -0.2661015772
 H         -4.8821204654       -2.5773573179       -0.5429228470
 H         -5.6250956919        2.5420433518       -0.8034059702
 H         -7.3410877754        2.3682205795       -0.4325459353
 H         -6.1576333064        1.7349099803        1.5129442883
 H         -6.8058353946        0.2413290791        0.8133301432
 O         -3.8373501267        1.2983249297        1.3776666502
 C         -2.4992674545        0.9742665431        1.5153642895
 O         -1.8351280815        1.8220519889        2.1470868018
 O         -2.5331079411       -2.2080509344       -0.2292070724
 C         -0.5494318623       -0.4971290850        1.1932218559
 C          0.2767776800       -0.1394743730       -0.0193322212
 C          0.0463859102       -0.7265163906       -1.2598117945
 C          0.8224235020       -0.3842398102       -2.3515236822
 C          1.8576185603        0.5259917127       -2.2240391917
 C          2.1018036746        1.1109036173       -0.9882040360
 C          1.3047186157        0.7843345238        0.1009178766
 H          1.5007191078        1.2582515164        1.0510310180
 N          3.1592660620        2.0267524073       -0.8141610081
 S          4.3419310428        1.6379627810        0.3070399399
 O          3.7736648494        1.6044142556        1.6294175391
 O          5.4022664988        2.5946228122        0.0832916275
 C          4.8824410747        0.0083184701       -0.1791967344
 C          5.9837698623       -0.1087516519       -1.0048237504
 C          6.3611756658       -1.3666213185       -1.4462923829
 C          5.6254563972       -2.4793970842       -1.0675871503
 C          4.5203078640       -2.3447008798       -0.2413478957
 C          4.1420956713       -1.0903174697        0.2108208429
 H          3.2897064055       -0.9529260186        0.8558143971
 H          3.9461250715       -3.2087950952        0.0519474216
 H          5.9146971336       -3.4580900137       -1.4165687986
 H          7.2222521991       -1.4745471786       -2.0859863167
 H          6.5260989582        0.7837512489       -1.2724544883
 H          3.5981891826        2.3069307736       -1.6804908176
 H          2.4691652979        0.7859482920       -3.0749999538
 H          0.6270750716       -0.8396690894       -3.3103916211
 H         -0.7509763067       -1.4465610604       -1.3588546014
 H         -0.2462792194        0.1748660918        2.0081159211
 C         -0.2589253228       -1.9231595157        1.6223041411
 C          0.9706168969       -2.1975259531        2.4327089772
 C         -0.3839608721       -2.2899718179        3.0685260836
 H         -0.7731510040       -3.2647739835        3.3208637723
 H         -0.6777502961       -1.5111721146        3.7579207343
 H          1.5152780026       -3.1117143394        2.2531019205
 H          1.5944368415       -1.3566170410        2.7011535544
 H         -0.5629061925       -2.6623950562        0.8933584784
