  62
        -98.94360566
 C         -1.0630482534       -1.1346722693       -0.6548164787
 C         -2.0771879003       -1.4287199076        0.2908794454
 C         -2.9286206788       -0.3096284896        0.7114723408
 C         -2.6718846109        0.9214760881        0.2348194008
 C         -3.4736765335        2.1499892427        0.5530103406
 C         -4.6029087241        2.3580986024       -0.4658806513
 C         -5.4442779571        1.1068637920       -0.7169468340
 H         -6.2275957299        1.3785027003       -1.4277371131
 H         -4.8208927256        0.3494418238       -1.1973888726
 C         -6.0832646885        0.5087699068        0.5440565432
 H         -6.0868335835        1.2491454358        1.3448488196
 H         -7.1243546515        0.2615280159        0.3261506585
 C         -5.4168935602       -0.7740353698        1.0450748583
 H         -5.3258964578       -1.4858823845        0.2207990501
 H         -6.0700376571       -1.2254098619        1.7966941743
 C         -4.0338108853       -0.6027025441        1.6866465490
 H         -4.0778142323        0.1668966259        2.4607384728
 H         -3.7671104577       -1.5506959520        2.1634843290
 H         -5.2450063091        3.1654400272       -0.1090730841
 H         -4.1596935760        2.6687858290       -1.4146233123
 H         -3.8852248135        2.0566383163        1.5563552055
 H         -2.8062506681        3.0132904914        0.5267359239
 O         -1.6711232067        1.1771800229       -0.6413323485
 C         -0.8424513975        0.1642309780       -1.1160223685
 O          0.0128439578        0.5642331077       -1.9246295742
 H          1.4127660748       -0.3062313741       -0.1463662315
 C          1.6902621008       -1.2634821098        0.2644954827
 C          0.9942795056       -2.4022704581       -0.1146433139
 C          1.3773173502       -3.6266385254        0.4200661455
 C          2.4263897035       -3.7021091198        1.3197371695
 C          3.0942567568       -2.5591823119        1.7217200899
 C          2.7156907153       -1.3298372216        1.1943246927
 N          3.3565996169       -0.1412792043        1.5726276200
 S          2.4481453911        1.2608273689        1.7186189498
 O          3.2304631624        2.0967036985        2.6087184459
 O          1.0983640703        0.9808306069        2.1547408409
 C          2.4570977477        2.0031232689        0.1030318076
 C          1.3845194586        2.7898640418       -0.2622650947
 C          1.4017399894        3.4169440741       -1.4968898055
 C          2.4875050851        3.2466762338       -2.3398028673
 C          3.5589541444        2.4549783218       -1.9569064109
 C          3.5497904533        1.8281881745       -0.7218473678
 H          4.3618265568        1.1997386762       -0.3953459264
 H          4.3986678970        2.3193433836       -2.6196133631
 H          2.4939486497        3.7289151897       -3.3046724940
 H          0.5618413913        4.0217844266       -1.7989004798
 H          0.5482760349        2.8767194696        0.4143959625
 H          4.0303619233       -0.2319639418        2.3192857988
 H          3.8952893331       -2.6138218394        2.4429879890
 H          2.7151788596       -4.6585946147        1.7282224980
 H          0.8346184251       -4.5185507785        0.1432797983
 C         -0.1675409518       -2.2893669977       -1.0695854526
 H         -0.7859979833       -3.1923900219       -0.9407513223
 C          0.2672498126       -2.2372369509       -2.5266371802
 C          1.6493983509       -1.8612118463       -2.9589195742
 C          1.1937688043       -3.2831107685       -3.0733517139
 H          0.9940748510       -3.6871597150       -4.0541537364
 H          1.6059554344       -3.9962818034       -2.3757108428
 H          2.3695431899       -1.6130530154       -2.1952716740
 H          1.7467966914       -1.2674100374       -3.8543114388
 H         -0.5413836657       -1.9154943157       -3.1749139244
 O         -2.2665608999       -2.5864884868        0.7560740592
