  62
        -98.92651190
 C         -2.5793425128        0.0294969816        0.3130136328
 C         -2.2082389594        1.1152377009        1.1378563147
 C         -1.8200841755        2.3719611052        0.4720666575
 C         -1.8106614600        2.4116589234       -0.8729259022
 C         -1.4327675529        3.5550656892       -1.7781086807
 C          0.0849441452        3.7649044064       -1.8701347727
 C          0.8121825907        3.7703056858       -0.5287547896
 H          0.6803152915        2.7983354700       -0.0488497921
 H          1.8807194041        3.8758285325       -0.7372801013
 C          0.4095547931        4.8920848297        0.4268032958
 H          0.5571209788        5.8533940701       -0.0705884845
 H          1.0945334914        4.8493424873        1.2772969211
 C         -1.0202817856        4.8393546546        0.9728587196
 H         -1.7359140857        5.2289023429        0.2535997494
 H         -1.0604559432        5.5034613622        1.8411607042
 C         -1.4641240809        3.4621118487        1.4536295189
 H         -0.6901431754        3.0411002373        2.1058929711
 H         -2.3474964040        3.5795725626        2.0929091028
 H          0.2698520563        4.7050161902       -2.3941389346
 H          0.5048520595        2.9518896525       -2.4687083881
 H         -1.9280590316        4.4675319409       -1.4592582280
 H         -1.8082550680        3.3004620342       -2.7720036566
 O         -2.1491275491        1.3299839204       -1.6312661903
 C         -2.5058371766        0.1140428450       -1.0777686853
 O         -2.7362996162       -0.7780197714       -1.9138408399
 O         -2.1959991795        1.0413990295        2.3990749038
 C         -2.9004919210       -1.3073475324        0.9765070602
 C         -1.8337604309       -2.2575186765        0.4905070835
 C         -1.9580780579       -3.3111491031       -0.4050331935
 C         -0.8361875178       -3.9772970370       -0.8750577727
 C          0.4366388076       -3.6003246263       -0.4909254909
 C          0.5725830299       -2.5597586094        0.4153122793
 C         -0.5475984244       -1.9221852710        0.9110658381
 H         -0.4203882753       -1.0912337265        1.5953459345
 N          1.8780892794       -2.0846330868        0.7497610255
 S          2.2428871905       -0.7700577182       -0.2628251631
 O          1.5273938886        0.4109918610        0.1719998771
 O          2.0333721641       -1.1891349772       -1.6257031941
 C          3.9887952690       -0.5746816532        0.0451163210
 C          4.4539444728        0.5297327545        0.7310073201
 C          5.8130605407        0.6377011092        0.9837182267
 C          6.6765121948       -0.3573898168        0.5523690395
 C          6.1933447384       -1.4614980134       -0.1347814011
 C          4.8368502416       -1.5738969566       -0.3924519712
 H          4.4148250734       -2.4081785422       -0.9273872409
 H          6.8680923504       -2.2328971573       -0.4691741091
 H          7.7328669825       -0.2716485848        0.7524531125
 H          6.1907000948        1.4958777114        1.5159822295
 H          3.7448195351        1.2790038597        1.0453497773
 H          1.8958836862       -1.7251304528        1.6972939422
 H          1.3148450706       -4.0767326459       -0.8940950983
 H         -0.9619952198       -4.7844000412       -1.5809679020
 H         -2.9205804121       -3.6040475532       -0.7836833850
 H         -2.7008461733       -1.1302795698        2.0464892357
 C         -4.3814376490       -1.6320637035        0.8930493825
 C         -5.0968267464       -2.1759482748       -0.3044014723
 C         -4.9470161249       -3.0201659912        0.9264712072
 H         -5.8257218240       -3.1916593370        1.5304086505
 H         -4.2604479368       -3.8508757408        0.9114835151
 H         -6.0729545726       -1.7674624813       -0.5246760010
 H         -4.5194777218       -2.3890586421       -1.1885534423
 H         -4.9356341440       -0.8850673991        1.4575782250
