  62
        -98.93732158
 C          1.8332106224        0.1337863905       -0.2187509739
 C          2.9447318982        0.3136633353       -1.0709271406
 C          4.2743569928        0.3699340577       -0.4326139187
 C          4.3525555922        0.2594802237        0.9069446760
 C          5.5871022860        0.2540779875        1.7688238961
 C          6.3476885359       -1.0805910464        1.7076231586
 C          6.5006238264       -1.6704386165        0.3080742440
 H          6.9510759783       -2.6610201299        0.4126815360
 H          5.5116327966       -1.8095239873       -0.1322494560
 C          7.3728512366       -0.8603038596       -0.6479558197
 H          8.3732947101       -0.7584476026       -0.2214190860
 H          7.4634908183       -1.4368111272       -1.5722034018
 C          6.8544467834        0.5335329362       -1.0077339548
 H          7.0356516020        1.2397089990       -0.2018821870
 H          7.4359595829        0.8857855929       -1.8648885171
 C          5.3890749690        0.5789657101       -1.4293849476
 H          5.2224192984       -0.1554925246       -2.2257342063
 H          5.1902494163        1.5532153200       -1.8927824459
 H          7.3328790171       -0.9369247267        2.1544838850
 H          5.8033685200       -1.8066341151        2.3162552844
 H          5.2524388190        0.4163611238        2.7957489997
 H          6.2348846956        1.0824139379        1.4974780133
 O          3.2491209013        0.0891788467        1.6907262157
 C          1.9725422171        0.0232371772        1.1641981499
 O          1.0702169037       -0.1294736209        2.0085567739
 O          2.8382912022        0.4251200718       -2.3234918946
 C          0.4436340105        0.0678441423       -0.8214167484
 C         -0.4416762962        1.1579509472       -0.2689731482
 C          0.0887049999        2.4268044945       -0.0499628644
 C         -0.6968672947        3.4463533772        0.4500628824
 C         -2.0369895536        3.2311175542        0.7191334711
 C         -2.5828813140        1.9760839661        0.4849134442
 C         -1.7855350325        0.9474991676        0.0006743689
 H         -2.2301059978       -0.0187942912       -0.1710192994
 N         -3.9381937895        1.7233685882        0.7450618536
 S         -4.8381053372        0.8387934908       -0.3547310800
 O         -4.3601322932        1.0227548142       -1.7049445887
 O         -6.2087212026        1.2351562762       -0.1075433762
 C         -4.6426017641       -0.8589230047        0.1431873351
 C         -4.5837792849       -1.8368631519       -0.8296824139
 C         -4.4912329448       -3.1648544984       -0.4423499695
 C         -4.4587366233       -3.4896104543        0.9048637686
 C         -4.5192726612       -2.4951615130        1.8695258213
 C         -4.6172474810       -1.1663339259        1.4891002897
 H         -4.6654291232       -0.3699103965        2.2125923504
 H         -4.4905624170       -2.7511757448        2.9164540645
 H         -4.3844422811       -4.5231359228        1.2045174845
 H         -4.4438922238       -3.9389106158       -1.1919969140
 H         -4.5999155888       -1.5392846279       -1.8660340220
 H         -4.4570815868        2.5164390049        1.0934436170
 H         -2.6543516231        4.0276981321        1.1061330369
 H         -0.2653842974        4.4207097728        0.6243815383
 H          1.1327977477        2.6026478788       -0.2707427665
 H          0.5808708780        0.2586724233       -1.8971656306
 C         -0.1332678089       -1.3218747769       -0.6441862809
 C         -1.0648933496       -1.8983683671       -1.6666170938
 C          0.3359305585       -2.4175504296       -1.5523923543
 H          0.4898832432       -3.4020077241       -1.1371824832
 H          1.0464150619       -2.1511658012       -2.3214416007
 H         -1.8727622008       -2.5280094563       -1.3254912468
 H         -1.3145933891       -1.2846394415       -2.5193946805
 H         -0.2993326849       -1.5702901898        0.3982816071
