  62
        -98.93859841
 C         -2.2962208374       -1.2489499939       -0.0620807543
 C         -2.9958667689       -0.4950841307        0.9139105210
 C         -3.6414210952        0.7566957951        0.4779715266
 C         -3.5417660570        1.1142506918       -0.8154513140
 C         -4.0614622867        2.3583365030       -1.4851523101
 C         -3.2014820958        3.5937441698       -1.1747799630
 C         -2.8041063747        3.7473903579        0.2910410553
 H         -2.2414974430        2.8647679854        0.6025678287
 H         -2.1232975181        4.6001367716        0.3604664626
 C         -3.9600156664        3.9899329096        1.2592248814
 H         -3.5219543936        4.1768039230        2.2428806744
 H         -4.4947672411        4.8929915082        0.9567841027
 C         -4.9709917768        2.8494548898        1.3997775803
 H         -5.6612675230        2.8301314086        0.5607929769
 H         -5.5709685376        3.0561142283        2.2907192559
 C         -4.3516099075        1.4704942694        1.6028385185
 H         -3.6343494195        1.5171517173        2.4300421622
 H         -5.1354160808        0.7815579481        1.9398070610
 H         -2.2808073327        3.5209219988       -1.7600312984
 H         -3.7425108981        4.4825668513       -1.5042091027
 H         -4.0273754432        2.1731463713       -2.5611390552
 H         -5.0979428114        2.5288140716       -1.2099611362
 O         -2.8720886582        0.3523156914       -1.7248207593
 C         -2.2219404045       -0.8191254696       -1.3859558346
 O         -1.6435286996       -1.3603274021       -2.3523010788
 H          0.3037472517       -1.7963755766       -1.3706068672
 C          0.6944126171       -1.8164387917       -0.3636780062
 C         -0.1383060019       -2.1818565605        0.6850087886
 C          0.3780097360       -2.1725002920        1.9754114765
 C          1.6909625901       -1.8006125927        2.2077320825
 C          2.5096691935       -1.4149601205        1.1608898237
 C          1.9997234348       -1.4168762033       -0.1303131329
 N          2.8137098409       -0.9607845194       -1.1978603598
 S          2.9811778053        0.7192402617       -1.2051294472
 O          1.8031718283        1.3704541143       -0.6742335055
 O          3.3563494855        1.0711107033       -2.5575415511
 C          4.3673116292        0.9911799506       -0.1220949270
 C          5.6042169400        0.5197532465       -0.5174198603
 C          6.6919179505        0.7136408553        0.3188869039
 C          6.5247678213        1.3714546416        1.5287316556
 C          5.2767190269        1.8402690241        1.9097717086
 C          4.1842079519        1.6493708010        1.0778845068
 H          3.1935547298        1.9906873567        1.3327636717
 H          5.1484428025        2.3514098850        2.8503513360
 H          7.3724845169        1.5204739900        2.1787163379
 H          7.6641064966        0.3512888925        0.0261367437
 H          5.6872817700        0.0189327378       -1.4674656902
 H          2.4451223897       -1.2395361146       -2.0982437740
 H          3.5289078811       -1.1100347365        1.3342145582
 H          2.0773519276       -1.7996462427        3.2153866006
 H         -0.2669612240       -2.4362903622        2.8008664302
 C         -1.5903968935       -2.5047995249        0.4262097425
 H         -2.0592079828       -2.7427215183        1.3903747113
 C         -1.7497104083       -3.6975013564       -0.4938076034
 C         -1.5312138680       -5.0728212076        0.0594620325
 C         -2.9138658580       -4.6202918264       -0.2999434967
 H         -3.3868986054       -5.0408894349       -1.1745257364
 H         -3.6018431219       -4.3943142926        0.5016533319
 H         -1.0518562410       -5.8087672207       -0.5673986740
 H         -1.2822385039       -5.1559415058        1.1064358835
 H         -1.4347503629       -3.5060724055       -1.5111540674
 O         -3.0790688625       -0.8536208786        2.1194912809
