  62
        -98.94482867
 C         -2.0228644744       -1.3725980749        0.2808178956
 C         -2.6307841459       -0.7309728923       -0.8255787561
 C         -3.7743251968        0.1338696968       -0.5075533130
 C         -4.1898605175        0.2560757932        0.7662758242
 C         -5.3558447902        1.0795310863        1.2424558691
 C         -5.0214314887        2.5592993497        1.4756284989
 C         -4.8035304650        3.3847447424        0.2068055396
 H         -5.6515497453        3.2476351425       -0.4647158451
 H         -4.7909995077        4.4348593571        0.5054871120
 C         -3.4987619482        3.0683223602       -0.5381048745
 H         -2.8216191151        2.5263033587        0.1265051185
 H         -2.9977091785        4.0002029076       -0.8102124677
 C         -3.6813056677        2.2599438257       -1.8229153353
 H         -4.2445018462        2.8499195852       -2.5493310076
 H         -2.6925171362        2.0604221769       -2.2447023344
 C         -4.3936318181        0.9150679524       -1.6265076243
 H         -5.4555795774        1.0746722154       -1.4411751006
 H         -4.2800687293        0.3308023622       -2.5428080426
 H         -4.1323051522        2.6218251546        2.1076062867
 H         -5.8538795543        2.9982826417        2.0303021978
 H         -6.1766663871        0.9989464129        0.5295096389
 H         -5.6757597973        0.6457354815        2.1923391012
 O         -3.5848867015       -0.3890891109        1.7995503374
 C         -2.4743408135       -1.1916972780        1.5871758399
 O         -1.9842447869       -1.6776623808        2.6276191701
 H          0.0358237849        0.1584973610        0.7316477819
 C          0.5999888480       -0.2283082607       -0.1087342035
 C          0.2911563731       -1.4891645946       -0.6054860588
 C          1.0359984083       -1.9801303798       -1.6693172197
 C          2.0347517856       -1.2101331560       -2.2413357986
 C          2.3195729674        0.0546495449       -1.7624103387
 C          1.5964721192        0.5459302763       -0.6820815238
 N          1.8912900861        1.8215772180       -0.1729949038
 S          3.4999219528        2.2403712050        0.0186503557
 O          3.5131160463        3.2053998282        1.0957956475
 O          4.0360762354        2.6968153482       -1.2394138406
 C          4.3242926402        0.7372954831        0.5138381681
 C          5.3376055945        0.2178429907       -0.2656216213
 C          5.9449699503       -0.9648226550        0.1252352943
 C          5.5274994068       -1.6061691260        1.2808545369
 C          4.5101179077       -1.0698020828        2.0555399796
 C          3.9011429750        0.1133952118        1.6708023342
 H          3.1103458390        0.5570794674        2.2547822284
 H          4.1857131931       -1.5692884329        2.9544526525
 H          5.9968391463       -2.5292235238        1.5823050670
 H          6.7375783346       -1.3831350479       -0.4738357905
 H          5.6283889941        0.7477407843       -1.1580033122
 H          1.3434097631        2.0824110158        0.6329780681
 H          3.0784885576        0.6743771440       -2.2116316332
 H          2.5959534148       -1.5992131109       -3.0769144939
 H          0.8273734758       -2.9621295214       -2.0601332388
 C         -0.8165511293       -2.2676812520        0.0632314973
 H         -0.4701544314       -2.5611860016        1.0651327235
 C         -1.2237500458       -3.5139601594       -0.6952151089
 C         -0.4959309899       -4.8051310114       -0.4755444475
 C         -1.8862059275       -4.6289767007        0.0548376994
 H         -2.6947338968       -5.1625716491       -0.4218816725
 H         -2.0184476704       -4.4991933407        1.1194490756
 H         -0.3513999643       -5.4656543587       -1.3171085068
 H          0.3183500325       -4.8063765606        0.2329788815
 H         -1.5920831002       -3.2926850004       -1.6902587248
 O         -2.2420133994       -0.8701922322       -2.0134942711
