  62
        -98.93610218
 C         -1.2213605372       -1.6884398580        0.1530572202
 C         -2.2984564595       -1.2943550528        0.9849736283
 C         -3.1681586404       -0.2258840315        0.4694808958
 C         -2.8730293118        0.3411733750       -0.7142486373
 C         -3.6231479598        1.4788849264       -1.3471133093
 C         -3.2497817306        2.8091656009       -0.6638083692
 C         -4.3997741665        3.4760715105        0.0912568853
 H         -3.9726453946        4.2775306430        0.6979028574
 H         -5.0799915920        3.9354677614       -0.6289898414
 C         -5.2266370461        2.5558096364        0.9940550045
 H         -5.8142144246        3.1991023844        1.6525847861
 H         -5.9416432406        1.9942902504        0.3908011785
 C         -4.4283147193        1.5679830138        1.8547299706
 H         -3.4141711389        1.9326365641        2.0198301068
 H         -4.9067934460        1.5077961162        2.8345623644
 C         -4.3712671114        0.1334498316        1.2973269376
 H         -5.2810537616       -0.0712908796        0.7255041773
 H         -4.3500679693       -0.5657523960        2.1387969890
 H         -2.4236530914        2.6179170153        0.0236491129
 H         -2.8845459632        3.5125669239       -1.4131281703
 H         -3.3482176345        1.5012549647       -2.4015755276
 H         -4.6932508193        1.2973317405       -1.2718279288
 O         -1.7940284504       -0.0187213511       -1.4535757288
 C         -0.9433702184       -1.0415802548       -1.0526164009
 O         -0.0093670363       -1.2578213755       -1.8428550753
 O         -2.5236884628       -1.8153516506        2.1111410438
 C         -0.3171885094       -2.8037714354        0.6480066657
 C          1.1263830005       -2.4022655666        0.4816637962
 C          2.0351606308       -3.0924258615       -0.3082121568
 C          3.3366165797       -2.6386403501       -0.4393437485
 C          3.7611695327       -1.4966049807        0.2138447438
 C          2.8592237414       -0.7985183381        1.0072530771
 C          1.5581756105       -1.2561704896        1.1395791466
 H          0.8547521942       -0.7067111616        1.7541322757
 N          3.2805808297        0.3708548288        1.6771687859
 S          3.7898039181        1.6570082388        0.7324531291
 O          4.9754550206        1.2684701933        0.0131661584
 O          3.9316007438        2.7665700085        1.6483686392
 C          2.4525254656        1.9744828389       -0.4023606781
 C          1.5172597911        2.9341492726       -0.0690258179
 C          0.4518468522        3.1560478009       -0.9255341220
 C          0.3336449854        2.4082149125       -2.0871223338
 C          1.2792877957        1.4468006864       -2.4063303992
 C          2.3512272565        1.2249710255       -1.5568280849
 H          3.1024208561        0.4837517292       -1.7749588732
 H          1.1767351408        0.8541593639       -3.3002596713
 H         -0.5032360384        2.5705217270       -2.7477742581
 H         -0.2822132458        3.9085442591       -0.6846913398
 H          1.6498247900        3.4949798803        0.8426649332
 H          2.6032764219        0.7068456992        2.3477087830
 H          4.7661027255       -1.1215931187        0.1065828492
 H          4.0302615648       -3.1811473306       -1.0638459230
 H          1.7188753208       -3.9717164229       -0.8444122596
 H         -0.5287155325       -2.8686758054        1.7286739598
 C         -0.6350689445       -4.1727391191        0.0657414441
 C         -2.0272408747       -4.5224214688       -0.3652972488
 C         -0.9410253849       -4.3785098842       -1.3864522871
 H         -0.5692500872       -5.2724130679       -1.8658021777
 H         -0.9438712436       -3.5096743325       -2.0252537861
 H         -2.3999957816       -5.5110317535       -0.1428057717
 H         -2.7793345469       -3.7492186025       -0.3049054551
 H         -0.0762337538       -4.9607596866        0.5614992775
