  62
        -98.94946383
 C         -2.0412927934       -0.4511621672       -0.3170520650
 C         -1.3461224168       -1.3523343231       -1.1564277917
 C         -0.9253667676       -2.6135801895       -0.5359763651
 C         -1.1657049197       -2.8242478235        0.7711185279
 C         -0.7998964380       -4.0580952852        1.5510632685
 C          0.6531982633       -4.0675091396        2.0453408469
 C          1.7011961807       -4.3574488331        0.9702998049
 H          2.6386791504       -4.5717043242        1.4874369790
 H          1.4179901977       -5.2555832599        0.4194716552
 C          1.9352221975       -3.1989800052       -0.0090021712
 H          3.0095659156       -3.0580212131       -0.1544247854
 H          1.5547900771       -2.2735618526        0.4315231771
 C          1.3151085532       -3.4043455473       -1.3910969852
 H          1.5321879077       -2.5230880765       -1.9982085613
 H          1.7828218712       -4.2656390706       -1.8739104579
 C         -0.2040980484       -3.6184752011       -1.3854349653
 H         -0.5681302668       -3.5035849445       -2.4098025876
 H         -0.4366533582       -4.6275187750       -1.0445941926
 H          0.7315233022       -4.8360116887        2.8182641451
 H          0.8701341068       -3.1017316186        2.5095447801
 H         -1.4605326027       -4.0815391122        2.4205049648
 H         -0.9872762935       -4.9470278154        0.9474111775
 O         -1.8117504181       -1.9205735667        1.5531394468
 C         -2.2544621805       -0.7131505685        1.0367281747
 O         -2.8286007446        0.0191646930        1.8662978374
 H          0.0324066502        1.0694530094       -0.2202358635
 C         -0.5183682338        1.8989231095        0.1909532470
 C         -1.8792630316        1.9950098620       -0.0694526574
 C         -2.5785833023        3.0752927752        0.4497855917
 C         -1.9310140320        4.0002514086        1.2519250073
 C         -0.5924092993        3.8586765258        1.5665868759
 C          0.1219278618        2.7902260491        1.0325694888
 N          1.4806429289        2.6151848947        1.3210864516
 S          2.2531025662        1.1334001512        1.2347123007
 O          1.3661234739        0.0220008240        1.4827965148
 O          3.3715244141        1.2710620237        2.1444264811
 C          2.8805156503        1.1114019745       -0.4324070608
 C          3.9510615137        1.9381769667       -0.7164205914
 C          4.4534927235        1.9704934746       -2.0064829168
 C          3.8782676878        1.1809731272       -2.9913198475
 C          2.8071355388        0.3545487750       -2.6914160590
 C          2.3028109846        0.3169937834       -1.4006259057
 H          1.4697444021       -0.3194193676       -1.1445456944
 H          2.3507755820       -0.2592406612       -3.4521995764
 H          4.2659900945        1.2069938130       -3.9974187483
 H          5.2888878209        2.6100968725       -2.2414187595
 H          4.3738517166        2.5261838184        0.0810686616
 H          1.8471614696        3.1986206812        2.0574147085
 H         -0.1029595930        4.5602933724        2.2246913275
 H         -2.4853740291        4.8321966495        1.6595868535
 H         -3.6315042281        3.1836089732        0.2473354687
 C         -2.5056094033        0.8838485091       -0.8758935303
 H         -2.1146682958        0.9282391295       -1.9033214600
 C         -4.0173928553        0.9459033083       -0.9229745397
 C         -4.7075894201        1.7974038502       -1.9453807300
 C         -4.7341224433        0.3047041262       -2.0720203779
 H         -5.6594587496       -0.2159354413       -1.8762281440
 H         -4.1274866218       -0.1570778292       -2.8372066552
 H         -4.0882189021        2.3528580620       -2.6330165933
 H         -5.6195283163        2.3023401861       -1.6646697879
 H         -4.4659484546        0.8565252258        0.0603931750
 O         -1.0902872323       -1.1160878633       -2.3689943373
