  62
        -98.94521122
 C         -2.2645846136        0.7354405826        0.0138982191
 C         -3.2679707932        0.6627609349       -0.9854740035
 C         -4.1349359706       -0.5189624928       -0.9426088635
 C         -3.9153206709       -1.4730480451       -0.0198313353
 C         -4.6915103471       -2.7530794361        0.1319990809
 C         -5.9838234490       -2.6069554060        0.9473235668
 C         -7.1208751515       -1.8701863134        0.2381889866
 H         -7.2886380486       -2.3203999114       -0.7406588590
 H         -8.0241384939       -2.0310692046        0.8300032724
 C         -6.8961569038       -0.3597935194        0.0812401894
 H         -6.1076985350       -0.0360922471        0.7646091341
 H         -7.8051913397        0.1748946899        0.3655558556
 C         -6.5346132534        0.0834932938       -1.3363736971
 H         -6.3627556032        1.1626913105       -1.3241904659
 H         -7.3724376995       -0.1167150941       -2.0077864224
 C         -5.2797801797       -0.5897101840       -1.9077120333
 H         -5.4939308497       -1.6258792443       -2.1685351596
 H         -4.9843385995       -0.0539743515       -2.8130106062
 H         -5.7487743973       -2.0990130964        1.8855613810
 H         -6.3289596162       -3.6140171262        1.1926223775
 H         -4.0340271527       -3.4547299974        0.6501028973
 H         -4.9247857023       -3.1589502481       -0.8527844615
 O         -2.9164176446       -1.3862559355        0.8979187653
 C         -2.0801359140       -0.2796403641        0.9526825480
 O         -1.2381971739       -0.3302566368        1.8709980408
 O         -3.4294382341        1.5441873533       -1.8702614092
 C         -1.3449680582        1.9460898922        0.0134823143
 C          0.0335811040        1.4861014273       -0.3898547780
 C          0.3188157081        1.2970421998       -1.7395995606
 C          1.5484088908        0.8091552594       -2.1390091186
 C          2.5163081253        0.4893817004       -1.2020632745
 C          2.2344938024        0.6569412091        0.1463447096
 C          1.0067811019        1.1701369233        0.5445935029
 H          0.7980714719        1.2833149528        1.5965156601
 N          3.2044307341        0.3245170902        1.1077602088
 S          4.0082582675       -1.1407363886        0.9532646175
 O          3.2057627963       -2.1308134774        0.2726439818
 O          4.4465647174       -1.4748497352        2.2911793408
 C          5.4357623175       -0.7285655608       -0.0307670438
 C          5.7357162070       -1.4719101200       -1.1554111213
 C          6.8579964999       -1.1404906556       -1.8988784712
 C          7.6567894474       -0.0776799950       -1.5060434884
 C          7.3433801574        0.6574879055       -0.3724369112
 C          6.2238062869        0.3305633475        0.3756776524
 H          5.9468895078        0.8746288284        1.2630678771
 H          7.9666634061        1.4835823228       -0.0701903133
 H          8.5286252806        0.1790542126       -2.0868083840
 H          7.1027945818       -1.7114051102       -2.7801593382
 H          5.0816173333       -2.2856313056       -1.4262111440
 H          2.8837351149        0.4524753405        2.0571509738
 H          3.4726942918        0.0958319532       -1.5052323156
 H          1.7567269628        0.6717883191       -3.1891936034
 H         -0.4448070190        1.5249004012       -2.4701878628
 H         -1.7314410446        2.6016451051       -0.7784777871
 C         -1.3841799596        2.6953143712        1.3286275504
 C         -0.8178853248        4.0811369760        1.3989319416
 C         -2.2997205957        3.8723010534        1.4737242532
 H         -2.7960718599        4.0237658053        2.4206314188
 H         -2.8993429630        4.1469813760        0.6184030805
 H         -0.2947898809        4.3802183234        2.2943095309
 H         -0.4096803523        4.4966525734        0.4902599913
 H         -1.2668413749        2.0534837875        2.1934560538
