  62
        -98.93983845
 C          1.5270454585        1.4877720547        0.2893924296
 C          1.5592200321        0.4604708511       -0.6800909156
 C          2.4674779020       -0.6779075270       -0.4195226580
 C          3.1703053080       -0.7029233138        0.7281283162
 C          4.1513718756       -1.7390167171        1.2105749211
 C          5.5108089437       -1.6461253481        0.5022944952
 C          5.4296005788       -1.5047613431       -1.0148052741
 H          6.4475682389       -1.3740042613       -1.3912070600
 H          4.8750466407       -0.5975907486       -1.2609246470
 C          4.8102441145       -2.6946724050       -1.7448230963
 H          5.3673802976       -3.5996294761       -1.4931789113
 H          4.9354451360       -2.5167676888       -2.8160007328
 C          3.3228423314       -2.9449733555       -1.4797945468
 H          3.1692295327       -3.4658788208       -0.5383366451
 H          2.9613111718       -3.6154779664       -2.2649198291
 C          2.4507927481       -1.6948477885       -1.5368618902
 H          1.4043583463       -2.0053008858       -1.6426004863
 H          2.6767660874       -1.1425966507       -2.4565805647
 H          6.0928601128       -2.5334680471        0.7571706466
 H          6.0389831218       -0.7726845832        0.8925449429
 H          4.3019668913       -1.5513582316        2.2760035538
 H          3.7321735064       -2.7352035818        1.1052470941
 O          3.0893315301        0.3019202097        1.6463136811
 C          2.2898231997        1.4079600747        1.4584773823
 O          2.3366564791        2.2414696830        2.3840262209
 H         -1.1663755729        1.6495588737       -1.5998477769
 C         -1.5597382623        1.7020916431       -0.5972853174
 C         -0.7898611854        2.2524653845        0.4157887162
 C         -1.3075910335        2.2764175487        1.7073010244
 C         -2.5637231908        1.7624453286        1.9746691069
 C         -3.3170339961        1.1856880273        0.9666367339
 C         -2.7996398077        1.1445712897       -0.3210206021
 N         -3.5166843557        0.4817695950       -1.3355458071
 S         -4.0452250127       -1.0603443869       -0.9492889264
 O         -4.0000543407       -1.8107339839       -2.1852709218
 O         -5.3432225080       -0.9732286610       -0.3254266967
 C         -2.8733946813       -1.7175984538        0.2314000736
 C         -1.5223342394       -1.6760920456       -0.0528386937
 C         -0.6283003875       -2.1773264180        0.8797961079
 C         -1.0937620902       -2.7181082195        2.0681187849
 C         -2.4531807284       -2.7616193185        2.3342127038
 C         -3.3517187721       -2.2531879275        1.4103940867
 H         -4.4159519567       -2.2536460310        1.5818637988
 H         -2.8136862453       -3.1828988780        3.2587220580
 H         -0.3896894148       -3.1033138522        2.7887730315
 H          0.4305612805       -2.1286395549        0.6774236406
 H         -1.1696331417       -1.2450944507       -0.9772308739
 H         -3.0290397916        0.4740456713       -2.2206380479
 H         -4.2868399537        0.7551962000        1.1588233740
 H         -2.9546904825        1.7958220651        2.9800184578
 H         -0.7033288864        2.6852127579        2.5046881158
 C          0.6257162067        2.7079773548        0.1598970533
 H          0.9193195254        3.3834224355        0.9736310776
 C          0.8027005709        3.4313267529       -1.1587731380
 C          0.2412970506        4.8122016724       -1.3099271512
 C          1.7239584576        4.6103266005       -1.2290205302
 H          2.3138899643        4.7502612756       -2.1225652231
 H          2.2311944823        4.9047553130       -0.3217431338
 H         -0.2591483206        5.2421882126       -0.4554253229
 H         -0.1891730554        5.0938977130       -2.2586937935
 H          0.7760831819        2.7784541291       -2.0213661512
 O          0.8738412073        0.4640262464       -1.7380747850
