  62
        -98.94065145
 C          2.2563973224        1.0775166474        0.3869545330
 C          2.5432024594        0.1734503734       -0.6653002357
 C          3.4496176822       -0.9337692099       -0.3257040123
 C          3.8928627388       -1.0829445047        0.9346290960
 C          4.7890486845       -2.1816519962        1.4379745363
 C          6.2842188000       -1.9239664783        1.2054340050
 C          6.7494710773       -2.0545858347       -0.2454452860
 H          7.8410850184       -2.0649915625       -0.2316891924
 H          6.4197780442       -3.0135881959       -0.6463350728
 C          6.2785825934       -0.9199565279       -1.1658968538
 H          5.9506077816       -0.0723833889       -0.5596582744
 H          7.1167640261       -0.5730942590       -1.7744001939
 C          5.1528558918       -1.3072947956       -2.1249353311
 H          4.8732162150       -0.4217105513       -2.7012856404
 H          5.5122384191       -2.0646992946       -2.8250021272
 C          3.8906731180       -1.8411020090       -1.4348372252
 H          4.0654798276       -2.8480015059       -1.0561200735
 H          3.0857210213       -1.8805288307       -2.1730718092
 H          6.5281651494       -0.9265414257        1.5783302775
 H          6.8363934021       -2.6483658213        1.8084700169
 H          4.5043318377       -3.1276457340        0.9761029745
 H          4.6148101526       -2.2545642023        2.5137198045
 O          3.5442267351       -0.2291837999        1.9336119990
 C          2.7486493216        0.8748825926        1.6801024036
 O          2.5500276496        1.5982678556        2.6766965729
 O          2.0764821738        0.2599575721       -1.8310642051
 C          1.3895011075        2.3157044809        0.2124737130
 C         -0.0671029288        1.9724087543        0.3899174465
 C         -0.8563533115        2.6429964513        1.3161064703
 C         -2.1866101489        2.2997675260        1.4856364231
 C         -2.7554346524        1.2860418313        0.7356150549
 C         -1.9725703573        0.6043720691       -0.1870912052
 C         -0.6402497811        0.9508307346       -0.3556169291
 H         -0.0341787841        0.4202630978       -1.0756974128
 N         -2.5409584817       -0.4266401255       -0.9582144813
 S         -3.3357350399       -1.6570176481       -0.1346303081
 O         -2.8102169836       -1.8239041080        1.2014128503
 O         -3.2622722359       -2.8100320653       -1.0053117519
 C         -5.0237298255       -1.0937169552       -0.0637500502
 C         -5.6605980138       -0.7975086264       -1.2531284007
 C         -6.9751753725       -0.3609014478       -1.2173540366
 C         -7.6280670968       -0.2319424612       -0.0003447565
 C         -6.9763168466       -0.5377867018        1.1845431499
 C         -5.6605603150       -0.9737557996        1.1558426721
 H         -5.1114662361       -1.2179402688        2.0514300853
 H         -7.4856369206       -0.4382585149        2.1296157446
 H         -8.6511817500        0.1084634928        0.0248301169
 H         -7.4855025543       -0.1226407530       -2.1366545374
 H         -5.1185064731       -0.9156858956       -2.1764489803
 H         -1.8962837415       -0.8151582999       -1.6326226783
 H         -3.7900887800        1.0133089241        0.8648431756
 H         -2.7875944511        2.8271169219        2.2105796051
 H         -0.4154600063        3.4247313368        1.9172861123
 H          1.6745237034        2.9809964328        1.0425259285
 C          1.6802587746        3.0604588405       -1.0846137428
 C          0.7044304031        3.1867410482       -2.2122111019
 C          1.0088336470        4.3748961103       -1.3536722381
 H          1.5949600438        5.1814387039       -1.7671914803
 H          0.2483852464        4.6917344897       -0.6557585816
 H          1.0983009916        3.1533313024       -3.2166678352
 H         -0.2620214632        2.7193596526       -2.1096743922
 H          2.7259197050        2.9844047494       -1.3654636652
