  62
        -98.93569843
 C         -1.6672563923       -0.4293302986       -0.1298709698
 C         -2.8001608355       -1.1901332848        0.2498952508
 C         -4.1271554196       -0.6700029341       -0.1331409620
 C         -4.1935755475        0.5013002146       -0.7920476237
 C         -5.4189357976        1.2452209051       -1.2526672327
 C         -6.1445674925        1.9609637356       -0.1021376883
 C         -6.3048002661        1.1328123750        1.1700356864
 H         -6.7345055670        1.7829444227        1.9367391006
 H         -5.3189804164        0.8244845355        1.5228079836
 C         -7.2049414284       -0.0935967046        1.0396388056
 H         -8.1990437858        0.2245268853        0.7176009119
 H         -7.3033718255       -0.5305452237        2.0366669825
 C         -6.7130455512       -1.1877449613        0.0895516123
 H         -6.8968916104       -0.9196266850       -0.9474400624
 H         -7.3096855014       -2.0828708115        0.2883248304
 C         -5.2531765160       -1.5876090961        0.2789324823
 H         -5.0776876681       -2.5281407644       -0.2574097916
 H         -5.0794728270       -1.8234744690        1.3349784645
 H         -7.1255763879        2.2796787331       -0.4586145295
 H         -5.5710776668        2.8555800447        0.1529294133
 H         -6.0911828716        0.5710280934       -1.7751053214
 H         -5.0781627127        1.9962284960       -1.9689730637
 O         -3.0788397042        1.2215492120       -1.1024248352
 C         -1.7983343408        0.7946543092       -0.7865117627
 O         -0.9045558402        1.5863224637       -1.1387680881
 O         -2.7135519361       -2.2689040183        0.8958764194
 C         -0.3014539421       -0.9706669317        0.2525044322
 C          0.5480595603        0.1125957466        0.8643852170
 C          0.2044516363        0.6092616771        2.1193441514
 C          0.9496602313        1.6100224964        2.7113198566
 C          2.0668555676        2.1218772709        2.0744269286
 C          2.4157848692        1.6358390185        0.8205000467
 C          1.6579666222        0.6376078329        0.2226969490
 H          1.9194234219        0.3139704388       -0.7701007774
 N          3.5396494419        2.1346595480        0.1504202166
 S          4.4416458278        1.1528781638       -0.8482877785
 O          5.7543189570        1.7647186732       -0.8582254117
 O          3.8138184368        1.0060055548       -2.1369480442
 C          4.5190747814       -0.4297160597       -0.0252492782
 C          4.9434160740       -0.4750442297        1.2880791726
 C          5.0014988188       -1.7002614791        1.9319636899
 C          4.6406528058       -2.8551279432        1.2548370877
 C          4.2258582739       -2.7948331923       -0.0662882048
 C          4.1626919190       -1.5710102118       -0.7136935280
 H          3.8382419642       -1.4770489920       -1.7379044383
 H          3.9474374114       -3.6938662725       -0.5931047242
 H          4.6833122702       -3.8079507939        1.7583763809
 H          5.3259498769       -1.7512651357        2.9587250163
 H          5.2248402926        0.4379966617        1.7865527014
 H          4.1052059586        2.7882130460        0.6702141963
 H          2.6531855553        2.9022201217        2.5351009565
 H          0.6656567892        1.9910581476        3.6806536673
 H         -0.6661692568        0.2066266974        2.6188861720
 H         -0.5162216360       -1.7165749839        1.0359285916
 C          0.4130629245       -1.7134042395       -0.8662490265
 C         -0.3516332285       -2.4982000057       -1.8882656015
 C          0.3777129482       -1.2532200782       -2.2913036128
 H          1.2764478905       -1.3447930045       -2.8845143497
 H         -0.1950936201       -0.3677103037       -2.5196467489
 H          0.0418109319       -3.4523214250       -2.2046126384
 H         -1.4303411533       -2.4632834086       -1.8413954208
 H          1.3459861918       -2.1500043253       -0.5217471309
