  62
        -98.94969836
 C         -1.2388698151       -1.6286279336       -0.1549404585
 C         -2.2992505262       -1.1678812057        0.6595886113
 C         -3.0556304594       -0.0192680683        0.1435037503
 C         -2.7154171311        0.5114490615       -1.0449887303
 C         -3.3853430145        1.6962056690       -1.6784076014
 C         -2.7031361481        3.0159421813       -1.2922548628
 C         -2.4651171282        3.1850450334        0.2088565470
 H         -1.7187133862        2.4642735858        0.5534409276
 H         -2.0279349609        4.1755892148        0.3577021759
 C         -3.7261981077        3.0505381808        1.0733995874
 H         -3.7190279997        3.8449655816        1.8227311666
 H         -4.6166480482        3.1905763478        0.4587581574
 C         -3.8333845639        1.7264608113        1.8324109487
 H         -4.6101286440        1.8322852199        2.5949152788
 H         -2.8902007833        1.5298967344        2.3503470787
 C         -4.1878282507        0.4979342395        0.9845535800
 H         -4.4470775583       -0.3152203506        1.6692462308
 H         -5.0612481614        0.7176144964        0.3664882499
 H         -3.3239016204        3.8386449692       -1.6528043835
 H         -1.7369908583        3.0745027235       -1.7988539530
 H         -4.4302896245        1.7163292965       -1.3743868312
 H         -3.3354076744        1.5777118781       -2.7623131413
 O         -1.6933721100        0.0380040836       -1.8028731301
 C         -0.9121646770       -1.0259899239       -1.3686033492
 O          0.0136832237       -1.3330073121       -2.1411272390
 O         -2.6035132645       -1.6976147254        1.7636322618
 C         -0.3943001518       -2.7946986908        0.3213188525
 C          1.0415869971       -2.3667191266        0.5041057718
 C          2.1236816292       -3.1517483240        0.1258711523
 C          3.4182021680       -2.7130340202        0.3436359517
 C          3.6616867148       -1.4881652690        0.9368660604
 C          2.5862020827       -0.6987573816        1.3275988698
 C          1.2918539139       -1.1435132253        1.1138083105
 H          0.4658972822       -0.5215228073        1.4268580701
 N          2.7919374794        0.5449984996        1.9538099686
 S          1.9597014756        1.8781352368        1.3838777374
 O          2.6691914326        3.0089521593        1.9446574661
 O          0.5620888559        1.7805529533        1.7182757878
 C          2.1866892553        1.8423708557       -0.3828066526
 C          1.0940297856        1.6737718518       -1.2041046522
 C          1.2823542355        1.6095496910       -2.5748603522
 C          2.5617578752        1.7110278040       -3.0964334226
 C          3.6529987448        1.8884642778       -2.2585964729
 C          3.4677089949        1.9545647587       -0.8879405730
 H          4.2917892047        2.1044657616       -0.2093179733
 H          4.6458988045        1.9703792802       -2.6707654532
 H          2.7075310651        1.6510056633       -4.1634138925
 H          0.4311763358        1.4572584680       -3.2189352219
 H          0.1175755360        1.5870648996       -0.7563136419
 H          3.7641203888        0.7751354325        2.1033362581
 H          4.6715749839       -1.1461353460        1.1042623799
 H          4.2491667997       -3.3321180083        0.0420535721
 H          1.9533511117       -4.1080936849       -0.3403598167
 H         -0.7949992708       -3.0590249709        1.3121900428
 C         -0.5594603487       -3.9837534821       -0.6025608563
 C         -0.4577663247       -5.3798319313       -0.0669542749
 C         -1.7899560863       -4.8294429554       -0.4758581152
 H         -2.2525586655       -5.2057969075       -1.3758251848
 H         -2.4953640269       -4.5635097666        0.2981452047
 H         -0.0075516028       -6.1394388407       -0.6881104643
 H         -0.2626391842       -5.4981459397        0.9882456251
 H         -0.1884844194       -3.7875270821       -1.6020618766
