  62
        -98.93942830
 C          2.4748704243        0.1193463716        0.5189011951
 C          2.3330371386       -0.6254080775       -0.6735062123
 C          1.9598851590       -2.0450801195       -0.5283870318
 C          1.6933691313       -2.5328700587        0.6969813037
 C          1.2866748948       -3.9156574686        1.1642728691
 C          0.9927077788       -5.0211543552        0.1552392630
 C         -0.3228998534       -4.8498867126       -0.6057481878
 H         -0.3583098137       -5.5942982256       -1.4042189674
 H         -1.1453840470       -5.0595146704        0.0828190916
 C         -0.5741631732       -3.4680179232       -1.2043060637
 H         -1.5704602723       -3.4778067155       -1.6556531947
 H         -0.5933597748       -2.7090011709       -0.4192399372
 C          0.4121310319       -3.0299939147       -2.2833153356
 H          0.0572122802       -2.0745737553       -2.6795296369
 H          0.4162363403       -3.7565511632       -3.0992774319
 C          1.8577815528       -2.8235913951       -1.8098118637
 H          2.3821572010       -3.7726366398       -1.7267666937
 H          2.3748923296       -2.2260118629       -2.5668541371
 H          1.8282384199       -5.1305060880       -0.5299346519
 H          0.9248589680       -5.9533801183        0.7225730477
 H          2.0954979771       -4.2493621343        1.8237514424
 H          0.4101599843       -3.7692242049        1.8045763534
 O          1.8038122849       -1.7599267578        1.8201048151
 C          2.1870104118       -0.4340791009        1.7635545268
 O          2.2428688835        0.1350137444        2.8749541697
 H          0.2313251551        1.3987371813        0.9757981232
 C          0.4013254291        2.0357889040        0.1184538033
 C          1.7029378121        2.2966593748       -0.2919663527
 C          1.9013034091        3.1389400885       -1.3770284073
 C          0.8156217449        3.6687765966       -2.0544625535
 C         -0.4781866248        3.3585194087       -1.6792802793
 C         -0.6855178413        2.5335348068       -0.5782199999
 N         -1.9823417665        2.2029640124       -0.1495677086
 S         -2.2111635041        0.6965884888        0.5826227121
 O         -1.9496779666        0.8318801914        1.9953501480
 O         -1.4734385937       -0.3291027547       -0.1161411260
 C         -3.9631907445        0.4823854312        0.3256814182
 C         -4.8389500275        1.2211862209        1.0993321793
 C         -6.2010533185        1.0837028697        0.8850691669
 C         -6.6623321254        0.2144818535       -0.0928033853
 C         -5.7717458201       -0.5222272280       -0.8588877363
 C         -4.4076083942       -0.3876778183       -0.6512462902
 H         -3.6757053229       -0.9417012362       -1.2172097898
 H         -6.1327798991       -1.1996962942       -1.6157558487
 H         -7.7229774224        0.1086874568       -0.2569772894
 H         -6.8964885188        1.6528166215        1.4805068848
 H         -4.4331104430        1.8749851785        1.8536495647
 H         -2.6908120738        2.3977702731       -0.8437943963
 H         -1.3212200918        3.7477642086       -2.2294608189
 H          0.9813271730        4.3155101460       -2.9027876020
 H          2.9027682791        3.3654178821       -1.7040411663
 C          2.8121124899        1.6001350340        0.4596298655
 H          2.7991633390        1.9559106390        1.5006908259
 C          4.1895771009        1.8278060195       -0.1232161582
 C          4.9587490838        3.0636569715        0.2324874798
 C          5.3822754757        1.7341178327        0.7784368292
 H          6.2834699364        1.2800619990        0.3949724795
 H          5.1982003720        1.5248538156        1.8224839601
 H          5.5744857777        3.5242786182       -0.5250225051
 H          4.4928457056        3.7632069857        0.9100124191
 H          4.2880054024        1.4304601414       -1.1264513497
 O          2.5263110645       -0.1368446024       -1.8182490181
