  62
        -98.93026672
 C         -2.3724388606       -0.7710835211        0.2403562696
 C         -3.6302876905       -0.8885849920        0.8794843296
 C         -4.8220099707       -0.4813659114        0.1102339402
 C         -4.6502941409        0.0060588100       -1.1323129293
 C         -5.6972996010        0.5199183008       -2.0843336687
 C         -6.2047777212        1.9212073103       -1.7068652471
 C         -6.4858255111        2.1254772687       -0.2203999369
 H         -5.5771292211        1.9182449882        0.3479904728
 H         -6.7267359613        3.1812678285       -0.0702906257
 C         -7.6387400810        1.2989174879        0.3442758923
 H         -8.5537228910        1.5417201283       -0.2007180473
 H         -7.7799359909        1.6069916167        1.3835022127
 C         -7.4478217807       -0.2189369821        0.3213432607
 H         -7.6124011007       -0.6198119210       -0.6751890997
 H         -8.2207860706       -0.6533961429        0.9620591303
 C         -6.1084061906       -0.7012590424        0.8694106401
 H         -5.9495630205       -0.2662123535        1.8628084505
 H         -6.1705280804       -1.7835054626        1.0374007289
 H         -5.4430734614        2.6466427908       -2.0031549164
 H         -7.1088429713        2.1273211408       -2.2822738568
 H         -5.2262450911        0.5749438019       -3.0682327287
 H         -6.5200502709       -0.1859238293       -2.1500016494
 O         -3.4159000609        0.1385923508       -1.6946886193
 C         -2.2526978308       -0.2355976897       -1.0422477698
 O         -1.2172107409       -0.0421974488       -1.7054112997
 O         -3.7605703003       -1.3137918433        2.0594264492
 C         -1.1430670005       -1.1839815517        1.0290748091
 C         -0.0885360807       -0.1090888915        0.9469036101
 C         -0.3769158008        1.1457470479        1.4776329615
 C          0.5496440490        2.1685070981        1.4221916525
 C          1.7877639990        1.9625743290        0.8395600322
 C          2.0883246991        0.7146133096        0.3129585308
 C          1.1563720593       -0.3150051806        0.3756783898
 H          1.3973450295       -1.2733553801       -0.0572984512
 N          3.3380737291        0.5041660005       -0.2937557895
 S          4.6929175291        1.1574235899        0.4728641411
 O          4.6015663392        0.9497055783        1.9008433709
 O          4.8469488988        2.5262851304        0.0469047725
 C          5.9964260592        0.1574891408       -0.2177421701
 C          6.4967485990        0.4797424423       -1.4650769898
 C          7.4917070391       -0.3148161670       -2.0121856308
 C          7.9660214394       -1.4117744276       -1.3080992820
 C          7.4545031795       -1.7218529391       -0.0569439923
 C          6.4585716894       -0.9322300198        0.4957604587
 H          6.0375867796       -1.1296002610        1.4686091485
 H          7.8272801097       -2.5734412196        0.4891149468
 H          8.7413570794       -2.0275084270       -1.7359147127
 H          7.8937708090       -0.0761884059       -2.9835774405
 H          6.1038981588        1.3458779327       -1.9715863189
 H          3.4822873293       -0.4600753692       -0.5589684706
 H          2.5230930988        2.7498329092        0.7884939530
 H          0.3085904489        3.1369428677        1.8352139436
 H         -1.3458979308        1.3107886273        1.9299589118
 H         -1.4956388004       -1.2275408629        2.0734886491
 C         -0.6221751102       -2.5737806313        0.6955673776
 C         -1.5486893201       -3.6458092809        0.2070782465
 C         -0.5094005403       -3.0792375498       -0.7106980130
 H          0.3378378398       -3.6996347193       -0.9652684037
 H         -0.8238197205       -2.4215040390       -1.5055347423
 H         -1.4152433699       -4.6494529313        0.5819310554
 H         -2.5810910002       -3.3755485609        0.0395406869
 H          0.1514977199       -2.8893152319        1.3895207571
