  62
        -98.94521572
 C          1.4890746844        1.2616280630       -0.3365130210
 C          2.8295334699        1.3788486560        0.1157131782
 C          3.8095390305        0.4873682837       -0.5115165221
 C          3.4111455495       -0.3706326297       -1.4676794324
 C          4.2902320965       -1.3395482997       -2.2109970931
 C          4.5286596570       -2.6597800733       -1.4654860854
 C          5.4631227840       -2.5657701110       -0.2584948134
 H          5.7154392903       -3.5879186247        0.0307491330
 H          6.3895031080       -2.0730081822       -0.5553862776
 C          4.8601607499       -1.8449655996        0.9555276862
 H          3.7735124892       -1.7952790839        0.8479072203
 H          5.0633250685       -2.4232161351        1.8598640193
 C          5.4010625032       -0.4341286922        1.1889344404
 H          4.8773917035       -0.0056318983        2.0472443507
 H          6.4643344555       -0.4857899743        1.4334809771
 C          5.2183699131        0.5172264198       -0.0006461622
 H          5.9173064796        0.2629462124       -0.7970906289
 H          5.4272289713        1.5345822280        0.3389870311
 H          3.5626000780       -3.0610907347       -1.1487657815
 H          4.9622569540       -3.3638985150       -2.1795650658
 H          5.2477198718       -0.8686724324       -2.4357728244
 H          3.7818834540       -1.5626697381       -3.1515063527
 O          2.1238901848       -0.4371817218       -1.8940480054
 C          1.1276046446        0.3508604464       -1.3299560490
 O          0.0029092763        0.1521821644       -1.8258107488
 O          3.1916926808        2.2003714864        0.9999217772
 C          0.4567050055        2.1394266154        0.3548132097
 C         -0.2000492869        1.3291528338        1.4480296386
 C          0.2809242737        1.4139335188        2.7510054486
 C         -0.2813597137        0.6534290893        3.7594259459
 C         -1.3272999551       -0.2090184343        3.4857023174
 C         -1.8112175254       -0.3079010604        2.1853961959
 C         -1.2534375198        0.4666681841        1.1777547103
 H         -1.6169108811        0.3667907913        0.1696786919
 N         -2.8840296567       -1.1600267539        1.8920360085
 S         -2.9522486208       -2.0044550368        0.4441012721
 O         -3.8283585852       -3.1216363329        0.7386472070
 O         -1.6347328789       -2.3470702487       -0.0351215500
 C         -3.8103390611       -0.8958609793       -0.6520968597
 C         -5.1153666706       -0.5792173530       -0.3259228267
 C         -5.8220592955        0.2833525031       -1.1468380235
 C         -5.2143942718        0.8118955467       -2.2763219547
 C         -3.9059882468        0.4804803001       -2.5906614443
 C         -3.1915571049       -0.3842090463       -1.7740999107
 H         -2.1645159611       -0.6427167959       -1.9826214818
 H         -3.4281223099        0.8921930787       -3.4656534340
 H         -5.7624508036        1.4858060012       -2.9159963552
 H         -6.8402232844        0.5424912386       -0.9050780577
 H         -5.5501940184       -1.0196936448        0.5557303151
 H         -3.2001851151       -1.7254536319        2.6663446206
 H         -1.7654729449       -0.8075673820        4.2700957046
 H          0.1006280726        0.7281597330        4.7664611392
 H          1.1141432959        2.0693884351        2.9599145264
 H          1.0402602185        2.9341131943        0.8400060493
 C         -0.5432737289        2.7826958621       -0.5820041728
 C         -1.3657613301        3.9303717397       -0.0797346156
 C         -0.2847762161        4.1683598287       -1.0898154045
 H         -0.5670205933        4.4042937208       -2.1047739207
 H          0.6194494441        4.6613833128       -0.7635005616
 H         -2.3940591764        4.0039770163       -0.3980399629
 H         -1.1930240400        4.2607568015        0.9334286701
 H         -1.0125988924        2.0886022679       -1.2658545479
