  62
        -98.93933406
 C          2.6595637606        1.2793455091       -0.2002957359
 C          2.6081924577        0.1185238378       -1.0093433756
 C          3.8584597808       -0.6493693592       -1.1046410398
 C          4.9522310432       -0.2159866394       -0.4522755615
 C          6.2678537565       -0.9367151549       -0.4101526250
 C          6.3373435336       -1.8904938655        0.7909499656
 C          5.1147577729       -2.7976298228        0.9323795012
 H          5.2887176291       -3.4453230755        1.7944974241
 H          4.2396108877       -2.1855281235        1.1637301212
 C          4.8169838391       -3.6594875990       -0.3025734576
 H          5.7007067696       -3.7115751581       -0.9395969130
 H          4.5937831674       -4.6765490435        0.0264760757
 C          3.6215734963       -3.1874530453       -1.1323405880
 H          3.3676125846       -3.9785653069       -1.8428929947
 H          2.7558696432       -3.0433067799       -0.4803958001
 C          3.8370070018       -1.8998999640       -1.9376440690
 H          4.7491000207       -1.9846940978       -2.5316432740
 H          2.9892425111       -1.7901159580       -2.6201000270
 H          6.4270247613       -1.2939618666        1.7018161303
 H          7.2367120347       -2.5015394300        0.6952539610
 H          6.4028229959       -1.4914927403       -1.3364690089
 H          7.0640157098       -0.1957862412       -0.3208162433
 O          4.9680728005        0.9165921753        0.2966353567
 C          3.8230026346        1.6779168689        0.4587466435
 O          3.9664500373        2.6720629461        1.1993256671
 H         -1.0444915338        1.1817718802       -0.8498347863
 C         -0.8044233525        0.8719371876        0.1550269411
 C          0.3889509840        1.2705991553        0.7330614747
 C          0.6748864284        0.8501419423        2.0298586437
 C         -0.2084421626        0.0454560815        2.7226276511
 C         -1.3921632049       -0.3669345699        2.1349410517
 C         -1.6867106468        0.0457527993        0.8432212506
 N         -2.8705272954       -0.3930828576        0.2222886668
 S         -4.3003066095       -0.3428116614        1.1178822670
 O         -4.4649583103        0.9629213004        1.7187629978
 O         -4.3143420436       -1.4592246945        2.0292949744
 C         -5.5070315592       -0.5961972691       -0.1680193665
 C         -6.1297639286        0.4969278394       -0.7398221290
 C         -7.0455030890        0.2888046796       -1.7592791711
 C         -7.3187657300       -1.0011099818       -2.1889326875
 C         -6.6859504242       -2.0882804654       -1.6045232782
 C         -5.7702732879       -1.8874290543       -0.5840640449
 H         -5.2611422023       -2.7014280920       -0.0951547343
 H         -6.9029980755       -3.0896345630       -1.9398483196
 H         -8.0314555481       -1.1602258039       -2.9827246197
 H         -7.5415683667        1.1313676161       -2.2135836482
 H         -5.8938590599        1.4811807343       -0.3679307872
 H         -2.9998765700        0.0337125486       -0.6850831095
 H         -2.0890744877       -0.9975578393        2.6626790614
 H          0.0257319210       -0.2694930063        3.7288396775
 H          1.6054881624        1.1635126724        2.4846312217
 C          1.4112779392        2.1190454682        0.0154685881
 H          1.7074958140        2.9342941327        0.6903214416
 C          0.9228737786        2.7171948261       -1.2861268293
 C          0.0049793167        3.9014490106       -1.2599876194
 C          1.4279492626        4.0649727004       -1.7006741743
 H          1.6274068007        4.2407056540       -2.7470891203
 H          2.1174454153        4.5644578221       -1.0356633821
 H         -0.7724947620        3.9701478295       -2.0057473621
 H         -0.2760374520        4.2929411749       -0.2937752457
 H          0.7837327900        1.9776562673       -2.0654826184
 O          1.5777470978       -0.2612883893       -1.6238212438
