  62
        -98.94338028
 C         -1.9487818774       -0.8568686627        0.0461009147
 C         -2.2326804835        0.1194182100        1.0288440003
 C         -2.5796134166        1.4551273159        0.5283454264
 C         -2.5663357445        1.6832343027       -0.7978222296
 C         -2.9451768103        2.9821561119       -1.4475866192
 C         -4.4416499412        3.0183130466       -1.7890772000
 C         -5.3499548507        2.6079096132       -0.6300737918
 H         -6.3813240748        2.6983890531       -0.9773571729
 H         -5.1784750698        1.5539628847       -0.3998366055
 C         -5.1652390474        3.4405494659        0.6461598700
 H         -4.6498703905        4.3720157508        0.4096498549
 H         -6.1495590885        3.7039593258        1.0386854454
 C         -4.4167775576        2.7206088330        1.7694391250
 H         -4.8739532609        1.7441009498        1.9479683905
 H         -4.5292874273        3.3072956866        2.6850281053
 C         -2.9137101514        2.5123188664        1.5430424343
 H         -2.4437092949        3.4618269250        1.2773537325
 H         -2.4774310348        2.1687208870        2.4860181814
 H         -4.6965296185        4.0286785122       -2.1138059652
 H         -4.6215566520        2.3363637345       -2.6231833763
 H         -2.6922558557        3.8024785341       -0.7785675224
 H         -2.3667002380        3.0855818188       -2.3671254161
 O         -2.2519849057        0.7299419924       -1.7115721330
 C         -1.9359481740       -0.5611808384       -1.3166280355
 O         -1.6731628202       -1.3362297271       -2.2562464515
 O         -2.2008181308       -0.1178004874        2.2687237596
 C         -1.5834486679       -2.2607566646        0.4858138049
 C         -0.2037076477       -2.6392214063        0.0032482778
 C          0.1300702405       -3.9338290985       -0.3754918127
 C          1.4186864270       -4.2345865694       -0.7814829690
 C          2.3975861756       -3.2597394749       -0.8163590007
 C          2.0727758328       -1.9588799994       -0.4443009849
 C          0.7853076449       -1.6645405768       -0.0276640701
 H          0.5482571903       -0.6528715339        0.2701314130
 N          3.0335498292       -0.9379294204       -0.5191507178
 S          2.8668281638        0.4598205736        0.4016212478
 O          2.6458394419        0.1248907926        1.7916170036
 O          1.8866121370        1.3177225558       -0.2176744569
 C          4.4959752786        1.1549829004        0.1955843618
 C          4.7679802746        1.8883672524       -0.9438015986
 C          6.0430656552        2.4013051168       -1.1221609050
 C          7.0199832559        2.1729187403       -0.1643137277
 C          6.7318953457        1.4369393424        0.9751822468
 C          5.4588754864        0.9203568514        1.1591037136
 H          5.1853994719        0.3508622305        2.0327490853
 H          7.4921171149        1.2639461504        1.7196871321
 H          8.0111679002        2.5738075044       -0.3056178763
 H          6.2692085396        2.9765538235       -2.0054222543
 H          3.9737710847        2.0462274042       -1.6550250912
 H          3.9846885765       -1.2779486261       -0.5373710866
 H          3.4003966765       -3.4947992443       -1.1381596239
 H          1.6639862369       -5.2444704234       -1.0732858010
 H         -0.6202670127       -4.7071421377       -0.3541086593
 H         -1.5567047948       -2.2244797360        1.5865448580
 C         -2.6561689651       -3.2421006906        0.0564030324
 C         -2.9877095212       -4.4313825768        0.9062269277
 C         -3.9444048295       -3.2816583367        0.8210266593
 H         -4.8659306351       -3.4120864132        0.2739279609
 H         -4.0316108706       -2.6232237576        1.6733183998
 H         -3.2562908195       -5.3554674405        0.4168324251
 H         -2.4348441865       -4.5597281961        1.8246362712
 H         -2.7095860058       -3.3480351093       -1.0214800867
