  62
        -98.93579613
 C         -1.7558700175       -1.3415108774        0.1756156776
 C         -2.9490412250       -0.9250841153        0.8139365164
 C         -3.7215345574        0.1461106115        0.1589724767
 C         -3.2369450006        0.7166462680       -0.9595408341
 C         -3.8048526739        1.7938541766       -1.8601962500
 C         -5.0065772943        2.6255455749       -1.4205392485
 C         -4.7291500749        3.5869937336       -0.2647679199
 H         -4.0796674615        4.3876848245       -0.6278846871
 H         -5.6752018414        4.0396813739        0.0397085132
 C         -4.0567862197        2.9711175508        0.9597904419
 H         -3.8973228329        3.7688304525        1.6906568127
 H         -3.0716787617        2.5886044363        0.6836470343
 C         -4.8459753142        1.8603690066        1.6497805315
 H         -5.8428405161        2.2235592833        1.9071935611
 H         -4.3285948602        1.6177963498        2.5822922472
 C         -4.9913610270        0.5558738453        0.8482607197
 H         -5.2298324277       -0.2460761379        1.5532400629
 H         -5.8116440630        0.6193523000        0.1371943421
 H         -5.8469364680        1.9784539713       -1.1868735647
 H         -5.3021560922        3.2271597827       -2.2843365158
 H         -4.0586344043        1.2890679821       -2.7989384503
 H         -2.9701800978        2.4646117989       -2.0885980288
 O         -2.0508684697        0.3220094964       -1.5070100224
 C         -1.2845973115       -0.7080117854       -0.9737681059
 O         -0.2369426320       -0.9296984984       -1.6039294446
 O         -3.3592698554       -1.4306671870        1.8933703484
 C         -0.9570156889       -2.4555895635        0.8261208832
 C          0.5061131140       -2.0920896158        0.9045282169
 C          1.5342522859       -2.9459263811        0.5272909872
 C          2.8561138864       -2.5504118648        0.6442861381
 C          3.1834125796       -1.2953332295        1.1208968476
 C          2.1616604293       -0.4246395428        1.4799643592
 C          0.8409351685       -0.8333546422        1.3896894640
 H          0.0497282385       -0.1525941118        1.6808844197
 N          2.4777941293        0.8702684439        1.9227017870
 S          3.6981523458        1.6994193734        1.1317923778
 O          4.9691082576        1.3475351958        1.7169075537
 O          3.3302551717        3.0952810086        1.2366514654
 C          3.6624613754        1.1685084523       -0.5719166628
 C          2.4652601980        1.2022445272       -1.2576315697
 C          2.4338095090        0.7770285769       -2.5752051837
 C          3.5980641939        0.3366481072       -3.1852313083
 C          4.7961941523        0.3207442246       -2.4879937293
 C          4.8307650405        0.7362267883       -1.1669570348
 H          5.7365133131        0.7273041779       -0.5823372681
 H          5.6999581843       -0.0211631722       -2.9662106835
 H          3.5675119966        0.0010935404       -4.2098350142
 H          1.4939890563        0.7680501155       -3.1028814950
 H          1.5675793692        1.5407836063       -0.7646609361
 H          1.6741124193        1.4618029063        2.0731801448
 H          4.2077735679       -0.9741393178        1.2195678889
 H          3.6435391582       -3.2279995535        0.3522286224
 H          1.3045968315       -3.9191197047        0.1270343143
 H         -1.3438901810       -2.4984080444        1.8588942074
 C         -1.2040158090       -3.8290943240        0.2173782018
 C         -2.4315170570       -4.1139499438       -0.5941859457
 C         -1.0889502221       -4.0732368036       -1.2567127516
 H         -0.6554651304       -5.0041725484       -1.5915747534
 H         -0.8486234377       -3.2274040837       -1.8811917244
 H         -2.9171138026       -5.0699873787       -0.4667073269
 H         -3.1171666487       -3.2987058498       -0.7752288370
 H         -0.8731413550       -4.6298406057        0.8713762945
