  62
        -98.94629033
 C         -1.8041847969       -0.7353669880        0.2174123293
 C         -3.1073562327       -1.0385932936        0.6782752579
 C         -4.0506240261        0.0864743021        0.7203489528
 C         -3.6309995895        1.3105720943        0.3505647906
 C         -4.4997109280        2.5332176758        0.2982111842
 C         -5.1388918825        2.7021812338       -1.0872316625
 C         -5.8056101805        1.4334208332       -1.6188760999
 H         -6.2468706326        1.6791747794       -2.5872802846
 H         -5.0391021799        0.6760118346       -1.7988423109
 C         -6.8866930769        0.8505879156       -0.6979467427
 H         -7.2128192667        1.6076032047        0.0161974140
 H         -7.7546066156        0.5814472782       -1.3036608687
 C         -6.4636325757       -0.4101348732        0.0583654714
 H         -6.0488646817       -1.1371155382       -0.6446234068
 H         -7.3577290913       -0.8573014383        0.5009840806
 C         -5.4491477431       -0.2004547873        1.1896523704
 H         -5.8018376944        0.5869867469        1.8587757477
 H         -5.3886262789       -1.1331621451        1.7582560285
 H         -5.8751426185        3.5060961776       -1.0320692047
 H         -4.3610905808        3.0012117854       -1.7936413797
 H         -5.2735413554        2.4554778631        1.0594060029
 H         -3.8794682230        3.4054347245        0.5108953253
 O         -2.3645735903        1.5670371905       -0.0656733588
 C         -1.4224271311        0.5527096865       -0.1552345799
 O         -0.3066836261        0.9224609407       -0.5653351360
 H          1.8921990935       -1.8849746101       -0.6125877295
 C          1.7272169353       -1.5838211769        0.4077887941
 C          0.4457681681       -1.5094460188        0.9292613867
 C          0.2884975700       -1.1187257652        2.2575487240
 C          1.3830309397       -0.7943477772        3.0341429173
 C          2.6602269106       -0.8466746256        2.5018573690
 C          2.8297822409       -1.2446577584        1.1823460434
 N          4.1167817480       -1.3402637448        0.6208504590
 S          4.4838434529       -0.5264742331       -0.7953608798
 O          3.6178926695       -0.9672558629       -1.8570163503
 O          5.8992853573       -0.7556173347       -0.9889669636
 C          4.2117849381        1.1956455777       -0.4174599796
 C          2.9239063622        1.6911441653       -0.3789981313
 C          2.7342467065        3.0188864350       -0.0261585962
 C          3.8216552375        3.8219152396        0.2796608808
 C          5.1087969021        3.3067172230        0.2368650426
 C          5.3070524197        1.9806408663       -0.1097547215
 H          6.2888346882        1.5380069923       -0.1604053779
 H          5.9542756820        3.9324865807        0.4735101266
 H          3.6641396128        4.8539164133        0.5514794857
 H          1.7277946254        3.4054204848        0.0051485624
 H          2.0818614673        1.0609334617       -0.6184659402
 H          4.8625956695       -1.1976124108        1.2878316636
 H          3.5172508893       -0.5868989416        3.1046594601
 H          1.2426949333       -0.4914175504        4.0607881665
 H         -0.7099156501       -1.0705943164        2.6709703097
 C         -0.7806150598       -1.8515070168        0.1211154537
 H         -1.2605043457       -2.7293460309        0.5795244711
 C         -0.4831314517       -2.1662264196       -1.3299776275
 C         -0.0589786474       -3.5460628717       -1.7316615570
 C         -1.4256925071       -3.0475367349       -2.0910118748
 H         -1.6351089645       -2.8097998175       -3.1233073812
 H         -2.2737020638       -3.4463498908       -1.5532909135
 H          0.6758972027       -3.6484060176       -2.5162234788
 H          0.0207863231       -4.2905569163       -0.9539165772
 H         -0.0471673924       -1.3271278824       -1.8621549712
 O         -3.4611259547       -2.1921758253        1.0431340326
