  62
        -98.93736485
 C          2.2835398495        0.4937292682       -0.2716822519
 C          3.5301420695        0.9640970959       -0.7590244741
 C          4.7105650495        0.6414273094        0.0528326372
 C          4.5467613395       -0.0204838653        1.2123452602
 C          5.6632463696       -0.4619310713        2.1127899022
 C          6.1387778494       -1.8773875730        1.7565524885
 C          6.4168447393       -2.0801651697        0.2670171894
 H          6.7757152592       -3.1038766203        0.1401938940
 H          5.4776112893       -1.9996818821       -0.2853620909
 C          7.4400715593       -1.1025779225       -0.3278951151
 H          8.1351978792       -1.6634033854       -0.9562163026
 H          8.0231664194       -0.6447009589        0.4718606328
 C          6.8343725494       -0.0051079664       -1.2049286200
 H          6.1750407393       -0.4550123697       -1.9517991679
 H          7.6482644594        0.4879049811       -1.7430873323
 C          6.0503248495        1.0851245270       -0.4636031449
 H          6.6601979296        1.4907408206        0.3460917833
 H          5.8443395095        1.8893238238       -1.1760429085
 H          5.3671042094       -2.5886277815        2.0602286518
 H          7.0428490695       -2.0917244104        2.3293425494
 H          5.2967388596       -0.4592462666        3.1406066522
 H          6.4892355696        0.2417204683        2.0292027989
 O          3.3312792395       -0.4013811231        1.6789122521
 C          2.1686699995       -0.1637474663        0.9541584311
 O          1.1370698595       -0.5757331737        1.5154275130
 O          3.6483423494        1.6286364110       -1.8231821272
 C          1.0517800194        0.7856717445       -1.1088818332
 C         -0.0669942505        1.3199082884       -0.2514845255
 C          0.1102741397        2.5402994614        0.3963652190
 C         -0.8888820502        3.0724947050        1.1871247066
 C         -2.0949682103        2.4096780258        1.3333382897
 C         -2.2791221404        1.1884253429        0.6972587453
 C         -1.2680006805        0.6502321693       -0.0867798624
 H         -1.4329366806       -0.3080491528       -0.5501965980
 N         -3.4799053305        0.4770831837        0.8450443886
 S         -4.0557742306       -0.4132081722       -0.4661181174
 O         -3.4524281207       -1.7219617822       -0.4566654415
 O         -3.9045887406        0.3492004322       -1.6857375208
 C         -5.7813783906       -0.5452612801       -0.0331451866
 C         -6.1736866906       -1.5388822361        0.8438931579
 C         -7.5089539806       -1.6246802544        1.2048897184
 C         -8.4243797406       -0.7202423467        0.6872971343
 C         -8.0161515905        0.2708788593       -0.1926059302
 C         -6.6821225606        0.3628043376       -0.5572363807
 H         -6.3204178206        1.1102806744       -1.2448488041
 H         -8.7305897405        0.9705032575       -0.5954939133
 H         -9.4630572205       -0.7903772253        0.9692712047
 H         -7.8303305306       -2.3955948013        1.8865372819
 H         -5.4280348506       -2.2235790345        1.2134253409
 H         -4.2098840404        1.0156559257        1.2901630662
 H         -2.8800627802        2.8274492986        1.9452532779
 H         -0.7336560001        4.0173279373        1.6862086623
 H          1.0499659697        3.0625688907        0.2748857365
 H          1.3694281794        1.5957112914       -1.7879782368
 C          0.6153944593       -0.3718233295       -1.9944440879
 C          1.6103952092       -1.3492272021       -2.5421343035
 C          0.6119156992       -1.7917143773       -1.5169721315
 H         -0.2033834109       -2.4306077987       -1.8255805985
 H          0.9511106093       -1.9816334328       -0.5105069506
 H          1.4912458191       -1.6881735067       -3.5601681820
 H          2.6401144492       -1.2373899408       -2.2348154741
 H         -0.1951846108       -0.0861711825       -2.6598750791
