  62
        -98.94044413
 C         -2.4794893903       -1.2100037286       -0.0024668235
 C         -2.4344486354        0.0077086321       -0.7226239221
 C         -3.7342703987        0.6445635251       -0.9817332097
 C         -4.8604005468        0.0442358020       -0.5547888392
 C         -6.2423195401        0.6118926725       -0.6980808826
 C         -6.6244839418        1.4552126635        0.5266126645
 C         -5.5614474077        2.4774329558        0.9291808835
 H         -5.9517522104        3.0328801783        1.7846735378
 H         -4.6680377505        1.9488136093        1.2696321699
 C         -5.1720005757        3.4602639616       -0.1837705171
 H         -5.9377502901        3.4635159479       -0.9602241866
 H         -5.1314452532        4.4673733196        0.2363681138
 C         -3.8076120929        3.1888225831       -0.8206147447
 H         -3.5377472049        4.0550821110       -1.4306741723
 H         -3.0489234542        3.0908634585       -0.0396116531
 C         -3.7274538065        1.9514051551       -1.7236941933
 H         -4.5309235310        1.9811429651       -2.4625641758
 H         -2.7707764493        1.9885737549       -2.2535322914
 H         -6.7897324876        0.7828353074        1.3715261206
 H         -7.5631493214        1.9691431724        0.3122520695
 H         -6.2878207533        1.2193309662       -1.5997368346
 H         -6.9463520272       -0.2164787377       -0.7920001276
 O         -4.8634838736       -1.1389836199        0.1111411093
 C         -3.6781114728       -1.7877401519        0.4152125545
 O         -3.8206667575       -2.8504823870        1.0530200075
 H          1.4930189551       -1.3968627694       -0.0914639690
 C          1.0744038611       -0.8612129968        0.7432096168
 C         -0.2588119082       -1.0179387379        1.0871693613
 C         -0.7534060045       -0.3123068580        2.1815427107
 C          0.0593110882        0.5481366111        2.8926839708
 C          1.3826227328        0.7237704209        2.5280558151
 C          1.8925799419        0.0096072607        1.4506343751
 N          3.2495129953        0.1320998400        1.1015743969
 S          3.7206702957        0.0830391976       -0.5188418365
 O          3.0111793638        1.0817677431       -1.2864199742
 O          3.6358464959       -1.2748408933       -0.9928691048
 C          5.4341563470        0.5482313699       -0.3436963260
 C          5.8077212246        1.8613820403       -0.5582589529
 C          7.1373270728        2.2164280444       -0.3927251929
 C          8.0655015549        1.2579920552       -0.0147397127
 C          7.6759581057       -0.0564883861        0.1957425436
 C          6.3484655357       -0.4181359256        0.0306268174
 H          6.0010795560       -1.4279249636        0.1736237049
 H          8.4010781880       -0.7994505374        0.4862974539
 H          9.0994895478        1.5367579405        0.1135396908
 H          7.4434661976        3.2366196643       -0.5595769930
 H          5.0532217551        2.5700151566       -0.8605985426
 H          3.6942581110        0.9111408075        1.5689856195
 H          2.0152958886        1.4054377140        3.0762567760
 H         -0.3415993974        1.0946009466        3.7333748210
 H         -1.7911285343       -0.4427313182        2.4593542131
 C         -1.1897092003       -1.9364235289        0.3330912620
 H         -1.4703945105       -2.7645007969        1.0012052413
 C         -0.5752847537       -2.5156652261       -0.9240301491
 C          0.2662248075       -3.7530283069       -0.8508817169
 C         -1.1004447106       -3.8110449390       -1.4626865584
 H         -1.1845632530       -3.9279112880       -2.5327226283
 H         -1.8912865903       -4.2926961478       -0.9058380212
 H          1.1283564627       -3.8258566086       -1.4970813466
 H          0.4052303363       -4.2038484675        0.1202197792
 H         -0.2960478354       -1.7517438150       -1.6422745052
 O         -1.3662111968        0.5394859605       -1.1260128755
