  62
        -98.93823451
 C         -2.8439660785       -0.1137887139        0.0708165492
 C         -2.4587148152        0.7742553471       -0.9634239894
 C         -2.2583931159        2.1741101541       -0.5591178139
 C         -2.3786937298        2.5295735471        0.7313297462
 C         -2.1874550751        3.9116643709        1.2936633042
 C         -0.7186231482        4.2789679115        1.5461190217
 C          0.1013652356        4.5937005024        0.2941871741
 H         -0.4377244950        5.3138585012       -0.3226206264
 H          1.0214206991        5.0753142151        0.6314133990
 C          0.4753482770        3.3668355621       -0.5489453449
 H          0.3912990107        2.4620962115        0.0598540125
 H          1.5231067686        3.4498556489       -0.8499725036
 C         -0.3426717189        3.1989168214       -1.8300215925
 H         -0.0422550006        2.2635066546       -2.3091383211
 H         -0.1146021595        4.0173692531       -2.5172169763
 C         -1.8609562492        3.1553945407       -1.6214527523
 H         -2.2338964125        4.1488696309       -1.3734835708
 H         -2.3217382110        2.8310795761       -2.5582233324
 H         -0.2425811166        3.4612136394        2.0934806262
 H         -0.7105369254        5.1612461382        2.1906970605
 H         -2.7179855473        3.9338133025        2.2479810758
 H         -2.6396884154        4.6471374679        0.6272551809
 O         -2.7162421944        1.6401464168        1.7032302521
 C         -2.9406623539        0.3096077332        1.3995799435
 O         -3.2330642711       -0.3978381901        2.3856731601
 O         -2.2831144406        0.4442898655       -2.1649929670
 C         -3.0577986029       -1.6062685939       -0.1358001392
 C         -1.7643557540       -2.3215001165        0.1634927449
 C         -1.7145408255       -3.4294705911        0.9996683974
 C         -0.5020375424       -4.0139453905        1.3255740556
 C          0.6845964847       -3.4961735448        0.8373522767
 C          0.6411700515       -2.3947638864       -0.0052664770
 C         -0.5733565186       -1.8259855590       -0.3485939787
 H         -0.5935850693       -0.9638621183       -1.0009902392
 N          1.8594567796       -1.8094571590       -0.4513515238
 S          2.4630057915       -0.7863350150        0.7631589766
 O          2.7525442746       -1.5978967259        1.9176484507
 O          1.5593155624        0.3254084302        0.9714823652
 C          3.9814485971       -0.2217171115        0.0204213817
 C          4.0204268659        1.0178739248       -0.5872982775
 C          5.1967528004        1.4303534556       -1.1936005368
 C          6.3054987634        0.5976984315       -1.1849992152
 C          6.2498681367       -0.6452217846       -0.5716433715
 C          5.0774519486       -1.0627525366        0.0374365275
 H          4.9886369856       -2.0149488734        0.5330658149
 H          7.1148866726       -1.2885542565       -0.5659469644
 H          7.2193359066        0.9209398210       -1.6579196978
 H          5.2426200639        2.3968491918       -1.6691876820
 H          3.1346499650        1.6328825659       -0.5622934042
 H          1.6894684480       -1.2273763298       -1.2639986316
 H          1.6383406009       -3.9117150813        1.1173802924
 H         -0.4798431640       -4.8694771726        1.9833580138
 H         -2.6320025699       -3.8140483730        1.4209231537
 H         -3.7863958388       -1.9103487697        0.6329201642
 C         -3.6453943634       -1.9654207292       -1.4918551811
 C         -2.8620082342       -2.6464655134       -2.5696118935
 C         -3.9194537345       -3.4020111385       -1.8261440826
 H         -4.8387332055       -3.6470018060       -2.3358110532
 H         -3.5929000296       -4.1476996109       -1.1170302991
 H         -3.0507374279       -2.3466429191       -3.5888518459
 H         -1.8293040792       -2.8891016321       -2.3725520682
 H         -4.3821516611       -1.2398906090       -1.8189612113
