  62
        -98.94963604
 C         -1.6892961540       -1.2216825178        0.3073282394
 C         -1.3277924699       -0.1496542192       -0.5414804791
 C         -1.8935838323        1.1606899403       -0.2005926897
 C         -2.6610082940        1.2786387340        0.8980104671
 C         -3.3267020208        2.5465462762        1.3469322661
 C         -4.7363329085        2.6794125157        0.7534104336
 C         -4.7951261672        2.4434398083       -0.7557059774
 H         -5.8310625160        2.5922150838       -1.0676858092
 H         -4.5424642007        1.4009695094       -0.9618151444
 C         -3.8762953063        3.3591040897       -1.5763115530
 H         -3.5812880268        4.2208093002       -0.9765431233
 H         -4.4348906433        3.7369041209       -2.4351970342
 C         -2.6243808393        2.6727483834       -2.1254388887
 H         -2.1647159314        3.3408285417       -2.8583974699
 H         -2.9100127785        1.7569588411       -2.6486815481
 C         -1.5470363920        2.3199312597       -1.0916458220
 H         -1.3007335072        3.2001098631       -0.4934413907
 H         -0.6469431272        2.0198253131       -1.6361514031
 H         -5.1141804432        3.6772490565        0.9837130200
 H         -5.3860926146        1.9488581400        1.2409057843
 H         -3.3981299344        2.5280116323        2.4360121843
 H         -2.7114789217        3.3944742794        1.0513641611
 O         -2.9593846302        0.2328938874        1.7111955745
 C         -2.4785141306       -1.0376443376        1.4404701636
 O         -2.8177268351       -1.9068268345        2.2712948781
 H          0.4809514698       -1.1846385487        1.6182023129
 C          1.0412564762       -1.7471363222        0.8851639815
 C          0.3724393480       -2.5535989073       -0.0268372987
 C          1.1236406933       -3.2744305079       -0.9471678371
 C          2.5033946515       -3.1635119348       -0.9683998352
 C          3.1598715191       -2.3177687401       -0.0929825201
 C          2.4174859820       -1.6011984724        0.8382070377
 N          3.0299517569       -0.7049556843        1.7404580775
 S          2.6292452495        0.9161771049        1.5791414047
 O          3.4422235553        1.6012155843        2.5619896603
 O          1.2045584528        1.0891034199        1.6967466321
 C          3.1999172713        1.3451998109       -0.0563870646
 C          2.4500254087        0.9781286194       -1.1557570443
 C          2.9489196925        1.2503150544       -2.4210254063
 C          4.1772001473        1.8760437326       -2.5657459858
 C          4.9174146042        2.2378597908       -1.4500177362
 C          4.4285839927        1.9656167121       -0.1829169157
 H          4.9663207664        2.2291581275        0.7136273811
 H          5.8716842695        2.7265981527       -1.5632787544
 H          4.5581080028        2.0829557262       -3.5534356966
 H          2.3667143035        0.9649997353       -3.2826417237
 H          1.4936387186        0.4953872826       -1.0242475945
 H          4.0372731799       -0.7897889939        1.7735073493
 H          4.2334755040       -2.2091535235       -0.1275666065
 H          3.0731449629       -3.7287720573       -1.6899127179
 H          0.6269086196       -3.9192605948       -1.6536045979
 C         -1.1351392250       -2.6091049869        0.0390705965
 H         -1.4212395139       -3.2257685156        0.9041890482
 C         -1.7669291157       -3.1921331626       -1.2090986420
 C         -1.9862584198       -4.6695274103       -1.3308281906
 C         -3.1531328729       -3.7534511293       -1.1203446208
 H         -3.8332481626       -3.5829540201       -1.9413759743
 H         -3.6290542707       -3.7406946026       -0.1502188938
 H         -1.6777277269       -5.2913434262       -0.5040427751
 H         -1.8692926432       -5.1306133938       -2.2999933151
 H         -1.5087140658       -2.6351875560       -2.1025761932
 O         -0.5654346437       -0.2832364429       -1.5355243333
