  62
        -98.94055263
 C         -2.2658553507       -1.0066480701       -0.3266989801
 C         -3.5963415306       -1.1442756504        0.1403152199
 C         -4.5557864707       -0.1507969803       -0.3527773995
 C         -4.1471866809        0.8014292402       -1.2109417191
 C         -5.0096850910        1.8748232005       -1.8178105684
 C         -5.1867238310        3.1099172600       -0.9238613578
 C         -6.0932998709        2.9082899793        0.2910255722
 H         -6.3009908610        3.8978873290        0.7027755727
 H         -7.0439355909        2.4842730794       -0.0336377280
 C         -5.4866712708        2.0316161587        1.3955772717
 H         -5.6442340408        2.5077279082        2.3659897519
 H         -4.4064716608        1.9561683289        1.2487613716
 C         -6.0748392307        0.6230855187        1.4813523710
 H         -5.5500581206        0.0805536483        2.2717164306
 H         -7.1298793507        0.6829448984        1.7571554011
 C         -5.9537236407       -0.1923427007        0.1870735005
 H         -6.1916126206       -1.2342653208        0.4141414500
 H         -6.6600974308        0.1746890197       -0.5568770492
 H         -4.2005584710        3.4440877899       -0.5926605777
 H         -5.6149022111        3.9015217603       -1.5431009373
 H         -5.9869549310        1.4619659305       -2.0691016986
 H         -4.5146030411        2.1856310410       -2.7403098983
 O         -2.8635886909        0.8887919606       -1.6518446891
 C         -1.8859969708        0.0107010704       -1.2020908296
 O         -0.7500010409        0.2386081107       -1.6610651796
 O         -3.9630908205       -2.0530162109        0.9322081894
 C         -1.2153247306       -1.9775850503        0.1858305693
 C         -0.2411314606       -1.2167729506        1.0511776996
 C         -0.7030916005       -0.6898553013        2.2558192599
 C          0.1331001095        0.0456965683        3.0716254503
 C          1.4451994394        0.2787475886        2.6973719803
 C          1.9177022494       -0.2447584207        1.5001507500
 C          1.0778326794       -0.9963919804        0.6881048396
 H          1.4629260694       -1.3792976198       -0.2411388106
 N          3.2627055793       -0.0527214404        1.1272556600
 S          3.6265113092        0.3816918305       -0.4660487398
 O          2.9392014491        1.6039206306       -0.8198907591
 O          3.4293094592       -0.7564013191       -1.3255902904
 C          5.3742715992        0.6997377905       -0.2926044297
 C          6.2415975293       -0.3754929694       -0.2550070704
 C          7.5971226393       -0.1377716194       -0.0927913703
 C          8.0609272492        1.1638160006        0.0287984003
 C          7.1791291191        2.2330989805       -0.0131518891
 C          5.8218767991        2.0016899705       -0.1736969091
 H          5.0998592690        2.8011860905       -0.2211904986
 H          7.5423282190        3.2441208905        0.0777913415
 H          9.1165538992        1.3462597606        0.1537476604
 H          8.2860892793       -0.9663883394       -0.0626164408
 H          5.8358983694       -1.3677493094       -0.3627157509
 H          3.7340875593        0.5860047893        1.7558429003
 H          2.0993076694        0.8607094283        3.3294067206
 H         -0.2385572005        0.4480372978        4.0020732305
 H         -1.7329462105       -0.8632437716        2.5371719999
 H         -1.7633478405       -2.6815070707        0.8290840689
 C         -0.5674610506       -2.7528797196       -0.9396547012
 C          0.1246725095       -4.0478376197       -0.6400716019
 C         -1.1779562505       -4.0480132794       -1.3806912718
 H         -1.1744892605       -4.2856575989       -2.4338836119
 H         -2.0625990604       -4.3838431298       -0.8595433919
 H          1.0275511695       -4.2837383294       -1.1825409721
 H          0.1247733496       -4.3855585803        0.3852946879
 H         -0.1430208907       -2.1156650392       -1.7074570709
