  62
        -98.93903548
 C         -1.4942792273       -0.7757788707       -0.3636056301
 C         -2.7872025459       -1.3421441433       -0.3721875651
 C         -3.9255460685       -0.4035188689       -0.4278256243
 C         -3.6717745427        0.9179524132       -0.4717153902
 C         -4.6598404212        2.0539644254       -0.4890687154
 C         -5.2855477624        2.3147944629        0.8907923591
 C         -5.7144242605        1.0617533235        1.6497262063
 H         -4.8510867376        0.4058197646        1.7755918299
 H         -6.0342904116        1.3710687190        2.6483793629
 C         -6.8600328612        0.2765115896        1.0156058835
 H         -7.1162211351       -0.5349779169        1.7017449904
 H         -7.7345336991        0.9253926615        0.9291661750
 C         -6.5723911500       -0.3359793593       -0.3567347933
 H         -6.6208591420        0.4159563685       -1.1397567260
 H         -7.3714606700       -1.0532260455       -0.5665094075
 C         -5.2603168325       -1.1090225364       -0.4482161313
 H         -5.2229649515       -1.8480281312        0.3605169629
 H         -5.2676973158       -1.6979601094       -1.3736155612
 H         -4.5461155918        2.8365250801        1.5031508345
 H         -6.1438866019        2.9762166134        0.7615554430
 H         -4.1070936050        2.9453875462       -0.7931762841
 H         -5.4276749718        1.8702127811       -1.2345933154
 O         -2.4032272957        1.4189338298       -0.4624894518
 C         -1.2875730754        0.6029309527       -0.4068194463
 O         -0.2009294300        1.2081030036       -0.4021547392
 O         -2.9929274405       -2.5862432639       -0.3236832472
 C         -0.2824347641       -1.6866226187       -0.3099601744
 C          0.5888117235       -1.3197026586        0.8649970657
 C          0.0029591180       -1.1443495465        2.1165690066
 C          0.7646426859       -0.7776933243        3.2082762890
 C          2.1262033083       -0.5660296763        3.0756576532
 C          2.7236128513       -0.7558246028        1.8361502673
 C          1.9580389447       -1.1460156649        0.7451022728
 H          2.4517289489       -1.3122716948       -0.1965085784
 N          4.1012862565       -0.5678952347        1.6732743029
 S          4.7502125357       -0.1082001284        0.2071967747
 O          4.8036888502       -1.2393261242       -0.6856927562
 O          6.0310379118        0.4691138342        0.5580712981
 C          3.6858605027        1.1543456441       -0.4657284684
 C          3.3724603368        2.2472637060        0.3158873945
 C          2.5662792252        3.2397995910       -0.2147303104
 C          2.0921402163        3.1260520525       -1.5113457342
 C          2.4204036688        2.0256125544       -2.2852737474
 C          3.2237287381        1.0281265446       -1.7589999926
 H          3.4955701472        0.1505878376       -2.3249088906
 H          2.0441556622        1.9361315316       -3.2923869173
 H          1.4559114681        3.8955332721       -1.9190243781
 H          2.3017179541        4.0951884268        0.3859477988
 H          3.7570448406        2.3121183075        1.3210161669
 H          4.5797890510       -0.1488089665        2.4560528240
 H          2.7205673680       -0.2628383202        3.9238165874
 H          0.2942221655       -0.6428378267        4.1707150912
 H         -1.0635273945       -1.2925934688        2.2187814357
 H         -0.6781486356       -2.7008711503       -0.1508957033
 C          0.4532509800       -1.6481981960       -1.6331266950
 C          1.2549669533       -2.8289923089       -2.0898418422
 C         -0.0363300847       -2.4906573115       -2.7709647638
 H         -0.0031100830       -2.0799906335       -3.7689347221
 H         -0.8926249746       -3.1231350997       -2.5872866383
 H          2.1825809091       -2.6538639222       -2.6145723762
 H          1.2770276665       -3.6961869628       -1.4470604900
 H          0.8242050085       -0.6561040224       -1.8679400097
