  62
        -98.93921798
 C          1.4652672349        1.1327391058        0.3397751670
 C          2.5653101296        1.0299892465       -0.5452069991
 C          3.7265358404        0.2823571816       -0.0377450554
 C          3.6775179919       -0.2647802935        1.1900277108
 C          4.7648240063       -1.0984455283        1.8025884919
 C          4.5637782930       -2.5889014385        1.4949410751
 C          4.3011372076       -2.8859878941        0.0184710251
 H          4.2062580487       -3.9693602921       -0.0833701845
 H          3.3402304637       -2.4520223947       -0.2683489259
 C          5.3908953817       -2.3767994430       -0.9352884234
 H          6.3067920013       -2.1758284812       -0.3782318803
 H          5.6178860962       -3.1626163171       -1.6589346949
 C          5.0017423252       -1.1327540766       -1.7360591470
 H          4.0362377792       -1.2962980209       -2.2218626283
 H          5.7448330427       -0.9905945184       -2.5254060013
 C          4.9241034763        0.1755845590       -0.9393651633
 H          5.8471597353        0.3170852879       -0.3734418216
 H          4.8317753136        0.9950931032       -1.6581260284
 H          5.4513668815       -3.1321900265        1.8244370706
 H          3.7100626566       -2.9501216324        2.0729006903
 H          5.7286760090       -0.7654655960        1.4225527666
 H          4.7413714331       -0.9539411696        2.8840099821
 O          2.5960234619       -0.1604706438        2.0034134605
 C          1.4628812216        0.5248419691        1.5974623909
 O          0.5366852193        0.5257187450        2.4312091799
 H         -1.1057550110       -0.3982355129        0.3071167358
 C         -1.1372993537       -0.1134674685       -0.7343263176
 C         -0.4962555250        1.0536575836       -1.1336818695
 C         -0.5007247030        1.3881599579       -2.4810595018
 C         -1.1236436868        0.5638871704       -3.4031392327
 C         -1.7844770970       -0.5816534538       -2.9971942736
 C         -1.7989488915       -0.9159551333       -1.6491059609
 N         -2.5101896532       -2.0424713221       -1.1600804567
 S         -4.0114491661       -1.6273190002       -0.5092162934
 O         -4.6193760166       -2.8755031071       -0.1063653981
 O         -4.7700540816       -0.8486370648       -1.4671358309
 C         -3.6321643269       -0.6274230000        0.9081164616
 C         -3.2383351715       -1.2480574558        2.0765601205
 C         -2.9039579393       -0.4640886183        3.1687231570
 C         -2.9641406081        0.9173235429        3.0716437261
 C         -3.3680880271        1.5241613653        1.8923976811
 C         -3.7069264949        0.7470060696        0.7970311425
 H         -4.0205683904        1.1770344479       -0.1408141765
 H         -3.4121725923        2.5996530471        1.8219763110
 H         -2.6871767889        1.5240100687        3.9190903882
 H         -2.5843742167       -0.9287077275        4.0874068524
 H         -3.2001754021       -2.3248700513        2.1072280936
 H         -2.6653980002       -2.7479275031       -1.8692194652
 H         -2.2924940111       -1.2108483600       -3.7132157206
 H         -1.1053708429        0.8248461995       -4.4506189077
 H          0.0025509349        2.2812175044       -2.8121886739
 C          0.1962620995        1.8649670924       -0.0666843577
 H         -0.4492224596        1.8583058285        0.8225135102
 C          0.4639572784        3.3009196506       -0.4611678478
 C         -0.6840514871        4.2619158867       -0.5233127834
 C          0.3292359004        4.3743605254        0.5747027329
 H          1.0240789397        5.2004404673        0.5528217002
 H          0.0416038529        4.0724767310        1.5711392004
 H         -0.6879085398        5.0133371820       -1.2979998378
 H         -1.6630794785        3.8806939545       -0.2751160821
 H          1.2599413683        3.4074133353       -1.1871699752
 O          2.5916595931        1.5362246529       -1.6970882380
