  62
        -98.94142178
 C         -2.3197876865       -1.1110168318       -0.5513205260
 C         -3.6212081224       -0.9494531968       -0.0116962967
 C         -4.3353903383        0.2690719469       -0.4050256026
 C         -3.7441785524        1.1504219656       -1.2319396534
 C         -4.3475703353        2.4331165022       -1.7362678796
 C         -4.1974644200        3.6144525784       -0.7679046852
 C         -5.0875043112        3.5542976406        0.4741668525
 H         -5.0434461690        4.5374237305        0.9469959471
 H         -6.1211788137        3.3843558199        0.1713808987
 C         -4.6693080477        2.4942696581        1.5029186665
 H         -3.6405629704        2.1811232855        1.3071929408
 H         -4.6822764401        2.9329527799        2.5033327824
 C         -5.5665440882        1.2569086217        1.5398135687
 H         -6.5682343346        1.5409428337        1.8696777918
 H         -5.1552741096        0.5587214413        2.2733081293
 C         -5.6840030486        0.5207946851        0.1988369804
 H         -6.1532155981       -0.4491388029        0.3805919074
 H         -6.3091707183        1.0893223964       -0.4891066263
 H         -4.4443636595        4.5232139072       -1.3217040067
 H         -3.1505426741        3.6855819919       -0.4627580500
 H         -5.4028464333        2.2779398365       -1.9622311666
 H         -3.8248143772        2.6794382918       -2.6629015802
 O         -2.4965345497        0.9571368242       -1.7341238986
 C         -1.7442238047       -0.1583377896       -1.3921327234
 O         -0.6117514716       -0.1789261771       -1.9125543427
 O         -4.1609534891       -1.7878151422        0.7578782255
 C         -1.5241748509       -2.3376162719       -0.1337804097
 C         -0.4141836844       -1.8709261157        0.7749772982
 C         -0.6934310609       -1.6240811169        2.1164469756
 C          0.2765340564       -1.1101321881        2.9563522615
 C          1.5426639041       -0.8230241642        2.4758476026
 C          1.8270360753       -1.0570340630        1.1377076162
 C          0.8571544746       -1.5916372348        0.2994123257
 H          1.0857381305       -1.7516631467       -0.7423598034
 N          3.1104265580       -0.7605019353        0.6316551560
 S          3.7150848645        0.7743568778        1.0027950408
 O          4.2425534581        0.7413726534        2.3446861989
 O          2.7146581951        1.7875200328        0.7463674996
 C          5.0524484745        0.9031125306       -0.1673711990
 C          6.3216420002        0.5103820993        0.2116061113
 C          7.3500028636        0.5857470399       -0.7144524730
 C          7.0926066002        1.0475323038       -1.9964913929
 C          5.8127995217        1.4377176354       -2.3623364631
 C          4.7797014518        1.3647069857       -1.4413533430
 H          3.7715684325        1.6657419331       -1.6813027810
 H          5.6149506709        1.7977833017       -3.3591988413
 H          7.8938924445        1.1065485305       -2.7160032053
 H          8.3465035662        0.2850174598       -0.4340114103
 H          6.4731770512        0.1647253334        1.2206887439
 H          3.1423283273       -0.9009978654       -0.3702036339
 H          2.3031480426       -0.4012883935        3.1129647091
 H          0.0454697377       -0.9231607073        3.9945401393
 H         -1.6894088818       -1.8232936352        2.4872997457
 H         -2.2195342006       -2.9453568985        0.4605201930
 C         -1.0527969342       -3.1537587567       -1.3181684933
 C         -0.5469326135       -4.5461833384       -1.0913120736
 C         -1.8665409473       -4.3289736761       -1.7668301417
 H         -1.9438966005       -4.5264283504       -2.8254505938
 H         -2.7673379434       -4.5530300960       -1.2146291143
 H          0.2832130583       -4.8970388434       -1.6849056155
 H         -0.5507231560       -4.9163486630       -0.0773119586
 H         -0.5788094180       -2.5598489089       -2.0898113317
