  62
        -98.95046136
 C          1.7625299175        1.2846635794       -0.2388829141
 C          2.8544804954        0.6444079935        0.3902354033
 C          3.2697565787       -0.6380339255       -0.1913509284
 C          2.6104371411       -1.1209527227       -1.2604300208
 C          2.9137702640       -2.4257762732       -1.9376202848
 C          2.0685288431       -3.5687655354       -1.3604522503
 C          2.0914659373       -3.6476426720        0.1660194442
 H          1.5697208033       -2.7772249146        0.5718862643
 H          1.5023882553       -4.5222497580        0.4530043390
 C          3.4943103154       -3.7525397844        0.7804423302
 H          3.4725419702       -4.5120226374        1.5650194035
 H          4.2053550124       -4.0877114424        0.0239944054
 C          4.0085722799       -2.4640460713        1.4253652475
 H          4.8841710616       -2.7132271566        2.0312546875
 H          3.2449873578       -2.0668549309        2.0997146183
 C          4.4237555195       -1.3498709382        0.4562580185
 H          4.9592510311       -0.5895286187        1.0327252072
 H          5.1038224128       -1.7520672968       -0.2975570445
 H          2.4266068849       -4.5100750051       -1.7829006413
 H          1.0304496095       -3.4253479985       -1.6698381322
 H          3.9727076455       -2.6501267922       -1.8227429444
 H          2.6866675172       -2.3204934819       -3.0001630150
 O          1.5665276050       -0.4773654626       -1.8392229426
 C          1.0955266842        0.7182439197       -1.3240523694
 O          0.1021370398        1.1796137894       -1.9199734742
 O          3.4547488351        1.1253090873        1.3911089008
 C          1.2454278549        2.5967940454        0.3224348119
 C         -0.2099060128        2.4571957424        0.6955163297
 C         -1.1624832305        3.4394660097        0.4544399670
 C         -2.4883438240        3.2309939661        0.7947513051
 C         -2.8966600164        2.0348501110        1.3560383201
 C         -1.9486381741        1.0512519933        1.6112993284
 C         -0.6167856814        1.2811188705        1.3122703492
 H          0.1063950168        0.5065032271        1.5218129547
 N         -2.3052772278       -0.2053469274        2.1479565201
 S         -2.0829931944       -1.5179184567        1.1236912692
 O         -2.5721194119       -2.6619210720        1.8638147305
 O         -0.7126410744       -1.5761140689        0.6902214954
 C         -3.1860024451       -1.1812748690       -0.2373402048
 C         -4.4530418323       -1.7330579908       -0.2040413741
 C         -5.3527340286       -1.4131637004       -1.2071648001
 C         -4.9754249408       -0.5398285174       -2.2166431607
 C         -3.7023166380        0.0078643139       -2.2326354575
 C         -2.7934396573       -0.3109214953       -1.2342411947
 H         -1.7963222177        0.1026269390       -1.2349692213
 H         -3.3998217864        0.6871748055       -3.0134435179
 H         -5.6759532999       -0.2848821837       -2.9962014421
 H         -6.3424085140       -1.8406872806       -1.1971419545
 H         -4.6988435074       -2.4080265168        0.6000588107
 H         -3.2467730422       -0.2353125529        2.5164978546
 H         -3.9354507310        1.8595411069        1.5924264868
 H         -3.2167566259        4.0030929724        0.5997884138
 H         -0.8676969885        4.3670630307       -0.0083915192
 H          1.8256129277        2.7735120834        1.2408643138
 C          1.5104100372        3.7294223502       -0.6482701350
 C          1.7658672997        5.1178772170       -0.1444815732
 C          2.8894319026        4.3110472579       -0.7200982436
 H          3.2835714470        4.5861281885       -1.6868217838
 H          3.6308518468        3.9074307676       -0.0459596149
 H          1.3912960114        5.9519132789       -0.7185926441
 H          1.7514426727        5.2732250291        0.9236980675
 H          0.9677910988        3.6115182243       -1.5796622126
