  62
        -98.94406679
 C          2.6566859289        1.2773210499        0.1976458916
 C          2.6276337493        0.2833700109       -0.8098548695
 C          3.7595874594       -0.6549970389       -0.8131792803
 C          4.7427425892       -0.5081964397        0.0937126101
 C          5.9202450393       -1.4269430797        0.2399510593
 C          5.6226606193       -2.5512619408        1.2420983881
 C          4.2917548694       -3.2622141607        0.9959266370
 H          4.2025205994       -4.0535149915        1.7433560162
 H          3.4724221493       -2.5611073710        1.1718314176
 C          4.1451993998       -3.8668808093       -0.4074064736
 H          3.7309604099       -4.8729281794       -0.3137952048
 H          5.1262291999       -3.9624339586       -0.8742279935
 C          3.2148467399       -3.0892220184       -1.3405606830
 H          3.0139664102       -3.7118092475       -2.2167652137
 H          2.2576202198       -2.9110818291       -0.8427066830
 C          3.7507523798       -1.7444093778       -1.8480921514
 H          4.7464703699       -1.8818868672       -2.2746720914
 H          3.0807883199       -1.3993580770       -2.6413019312
 H          6.4373293494       -3.2763334506        1.1996388575
 H          5.6004403990       -2.1226032619        2.2466146285
 H          6.7685286092       -0.8441074399        0.6026237501
 H          6.1696137896       -1.8481051286       -0.7318703111
 O          4.7489020289        0.4774045593        1.0269694711
 C          3.7016236587        1.3787589191        1.1166437819
 O          3.8143750184        2.2101506981        2.0396288928
 O          1.7083619095        0.1823907917       -1.6651275598
 C          1.5146446788        2.2717305896        0.3212872524
 C          0.2361461488        1.5117156791        0.5782113413
 C          0.1550582587        0.7201639679        1.7218511305
 C         -0.9768403312       -0.0250434826        1.9864928994
 C         -2.0544327611        0.0002055882        1.1169963092
 C         -1.9809135409        0.7782836394       -0.0290487499
 C         -0.8447523010        1.5378398799       -0.2861574589
 H         -0.8030905209        2.1341701208       -1.1838718382
 N         -3.0703210408        0.8235332902       -0.9117824201
 S         -3.9083467505       -0.5817915295       -1.2736084018
 O         -3.0601108503       -1.7497182394       -1.2277453828
 O         -4.5596768403       -0.3094865083       -2.5366684116
 C         -5.1463814407       -0.6754913311        0.0047129679
 C         -5.3582404307       -1.8700025818        0.6648992066
 C         -6.3368484609       -1.9310741630        1.6449013563
 C         -7.0833656811       -0.8022889134        1.9455395974
 C         -6.8604296312        0.3891713773        1.2715082187
 C         -5.8851994910        0.4562583285        0.2893782690
 H         -5.6830719910        1.3627406991       -0.2560057800
 H         -7.4423383213        1.2651677770        1.5088268895
 H         -7.8427383013       -0.8515342844        2.7099040272
 H         -6.5113627109       -2.8570145036        2.1690620653
 H         -4.7480045505       -2.7201460714        0.4038151258
 H         -2.9043752607        1.3738276511       -1.7418428295
 H         -2.9351913010       -0.5896468421        1.3110384184
 H         -1.0233856513       -0.6345578135        2.8763835888
 H          1.0012757486        0.6932206573        2.3955567706
 H          1.7356114185        2.8785188987        1.2106341531
 C          1.4666297889        3.1807084309       -0.8881632166
 C          0.8005755887        4.5195513507       -0.7913546554
 C          2.2932766087        4.4299079910       -0.8886030951
 H          2.7707621888        4.7309833020       -1.8090201447
 H          2.8798465385        4.6370912001       -0.0054079048
 H          0.2536798088        4.8880636215       -1.6461775751
 H          0.3707010284        4.7945224996        0.1597834649
 H          1.3909949591        2.6352733118       -1.8219045472
