  62
        -98.93763274
 C         -1.6730204470       -0.2548008124        0.5906685197
 C         -2.9098334847       -0.1540541080        1.2650927314
 C         -4.1256470189       -0.4328535423        0.4758639266
 C         -3.9910761385       -0.7613034897       -0.8227900534
 C         -5.0764869788       -1.0419285692       -1.8277555273
 C         -5.7712625005        0.2381562267       -2.3197869162
 C         -6.1125900785        1.2457180309       -1.2250637787
 H         -5.1985291312        1.5255921382       -0.6981077008
 H         -6.4948626567        2.1474266718       -1.7109072752
 C         -7.1590960179        0.7808817342       -0.2151198230
 H         -8.0847013059        0.5409672118       -0.7433028317
 H         -7.3655817358        1.6240636461        0.4491794562
 C         -6.7685661817       -0.4195031526        0.6496374151
 H         -6.8575379234       -1.3488111634        0.0935176847
 H         -7.4912649726       -0.4784586727        1.4688528359
 C         -5.3894540213       -0.3209061203        1.2944734520
 H         -5.3143385231        0.6289169378        1.8362991827
 H         -5.3101138271       -1.0973453247        2.0652401928
 H         -6.6801350720       -0.0452339719       -2.8531749114
 H         -5.1034457646        0.7327779651       -3.0293230855
 H         -5.7978527740       -1.7399571230       -1.4136611878
 H         -4.5962282652       -1.5260535633       -2.6808367522
 O         -2.7739766865       -0.8425523824       -1.4326986873
 C         -1.5920506674       -0.5974244022       -0.7584072361
 O         -0.5655925515       -0.7175704122       -1.4525629122
 O         -3.0043026126        0.1663549202        2.4817470517
 C         -0.3901676531        0.0183767828        1.3544029217
 C          0.3653798603        1.1467481456        0.6987805613
 C         -0.2936855326        2.3528268962        0.4710912841
 C          0.3533810477        3.4048251848       -0.1459859091
 C          1.6725086770        3.2794227735       -0.5464944693
 C          2.3412656395        2.0829015577       -0.3202676862
 C          1.6881116862        1.0290047950        0.3055697593
 H          2.2245432500        0.1127070549        0.4798555951
 N          3.6618292647        1.9144484372       -0.7505394059
 S          4.7303991302        0.9037344566        0.0326160082
 O          4.5974206613        0.9909455974        1.4683938092
 O          6.0241737940        1.2725477631       -0.5020409057
 C          4.3137686601       -0.7352669781       -0.5235391127
 C          3.9656878053       -0.9309190633       -1.8447458685
 C          3.6601824104       -2.2130095737       -2.2720324539
 C          3.7123560480       -3.2718342718       -1.3785923333
 C          4.0719036126       -3.0601088837       -0.0566498443
 C          4.3780017760       -1.7801895521        0.3768968715
 H          4.6539586242       -1.5663558421        1.3975950906
 H          4.1112936585       -3.8854758421        0.6365020586
 H          3.4684132988       -4.2676617350       -1.7139397429
 H          3.3749973829       -2.3811871364       -3.2980196284
 H          3.9254644243       -0.0862538762       -2.5119927177
 H          4.1064980125        2.7293003829       -1.1446628832
 H          2.1775870420        4.0985404444       -1.0352720702
 H         -0.1710180250        4.3329956769       -0.3174928499
 H         -1.3252943829        2.4500143718        0.7814511070
 H         -0.7085870697        0.3530135394        2.3529685722
 C          0.4161023255       -1.2546034985        1.5013002067
 C          1.3697459167       -1.4129379516        2.6461821977
 C          0.0906121763       -2.1928723250        2.6230600263
 H          0.1372315009       -3.2551174845        2.4367039424
 H         -0.7003856051       -1.9020608423        3.2988704208
 H          2.2956366378       -1.9400476302        2.4746501748
 H          1.4570960870       -0.5917269358        3.3415893486
 H          0.6861540941       -1.6912633555        0.5458166970
