  62
        -98.94417776
 C         -1.9814464975       -1.3248459536        0.0416285412
 C         -2.2876343191       -0.3687019481       -0.9568726660
 C         -3.6879272318        0.0795835938       -1.0076139951
 C         -4.5808358604       -0.4287216615       -0.1397881450
 C         -6.0209062145       -0.0173572983       -0.0472771064
 C         -6.2073523765        1.1309321078        0.9543755817
 C         -5.2322220680        2.2912427393        0.7539687146
 H         -5.4785334342        3.0543067942        1.4956027020
 H         -4.2180395985        1.9482773498        0.9725448659
 C         -5.2645867732        2.9136344024       -0.6489381781
 H         -6.1900077026        2.6373310942       -1.1557110506
 H         -5.2619743920        4.0011781237       -0.5492670940
 C         -4.0726232863        2.5452479159       -1.5344307219
 H         -3.1418583867        2.7342080156       -0.9929465173
 H         -4.0821201979        3.2036504243       -2.4073125642
 C         -4.0462171440        1.1009249701       -2.0502864546
 H         -5.0039745186        0.8587391969       -2.5151042548
 H         -3.2666325445        1.0359765093       -2.8149328268
 H         -7.2324442946        1.4969501456        0.8729049733
 H         -6.0663633879        0.7368745169        1.9634835985
 H         -6.3715213303        0.2851741124       -1.0320560884
 H         -6.6033305204       -0.8773768114        0.2875321470
 O         -4.2536048452       -1.3544877227        0.7967992107
 C         -2.9532886388       -1.8092127457        0.9227638668
 O         -2.7883017445       -2.6389597705        1.8388310418
 H          0.8527563856        0.1270525917       -0.9773332145
 C          0.9409145391        0.1628724875        0.0971198355
 C          0.2727668510       -0.7745201571        0.8710241118
 C          0.3723466485       -0.6868455966        2.2559311555
 C          1.1231745872        0.3121216497        2.8494034481
 C          1.7851915159        1.2484131117        2.0741763784
 C          1.6818945103        1.1745368095        0.6917250046
 N          2.3556304758        2.1262972236       -0.1060113215
 S          4.0284728194        2.0721473584       -0.0316740345
 O          4.4536406282        2.5103977146        1.2732619993
 O          4.4994997205        2.8501057999       -1.1546368698
 C          4.4229594097        0.3480214614       -0.2592324138
 C          4.5758386807       -0.1316600124       -1.5446284700
 C          4.7999646487       -1.4857654227       -1.7325683054
 C          4.8524199406       -2.3346152212       -0.6375845669
 C          4.6926900529       -1.8375159224        0.6464508935
 C          4.4752970806       -0.4831373283        0.8416922307
 H          4.3521259138       -0.0580711088        1.8241528024
 H          4.7338868689       -2.4998554963        1.4961364986
 H          5.0189486532       -3.3899950349       -0.7856653650
 H          4.9286199290       -1.8745146429       -2.7301457572
 H          4.5301319248        0.5628877632       -2.3682672326
 H          2.0602890200        2.0992212760       -1.0722900334
 H          2.3838233282        2.0284503773        2.5164643562
 H          1.1925815125        0.3644355458        3.9254892823
 H         -0.1565341545       -1.4077176541        2.8636541210
 C         -0.5710133164       -1.8581364769        0.2450679278
 H         -0.6654387521       -2.6728325895        0.9746821275
 C          0.0360455574       -2.4139748040       -1.0276037212
 C          1.3081904635       -3.2007046536       -0.9371226187
 C          0.0199776890       -3.8925879398       -1.2651063632
 H         -0.1334703701       -4.2495828060       -2.2724978959
 H         -0.4334246566       -4.5164234611       -0.5086041918
 H          2.0443407341       -3.0816630611       -1.7169398079
 H          1.7303644539       -3.3499449145        0.0450536551
 H         -0.1028713909       -1.7751094733       -1.8897737866
 O         -1.4513165716        0.0942301482       -1.7770979668
