  62
        -98.92752755
 C          2.3282659273        1.0358218183        0.4082720442
 C          2.5427542825       -0.3278819737        0.7251684434
 C          3.8417911421       -0.9152286845        0.3488698829
 C          4.7588763353       -0.1315392798       -0.2456588424
 C          6.1464499199       -0.4865865255       -0.7170262669
 C          6.9980094728       -1.3387433585        0.2365774597
 C          7.2185227442       -2.7687613711       -0.2591796132
 H          7.3812979864       -2.7414065424       -1.3385413162
 H          8.1295555394       -3.1608781350        0.1982199751
 C          6.0871837494       -3.7456802879        0.0561251304
 H          6.0865311676       -3.9648464092        1.1260939137
 H          6.3021992630       -4.6806049110       -0.4666510196
 C          4.6857463293       -3.2752797476       -0.3393634283
 H          4.7079926436       -2.7754333967       -1.3070131554
 H          4.0561212609       -4.1604326870       -0.4532224055
 C          4.0224020812       -2.3655986849        0.7057436110
 H          3.0097756278       -2.7247377502        0.9158883857
 H          4.5641746824       -2.4298773628        1.6542356102
 H          6.5472613235       -1.3470173492        1.2278622060
 H          7.9741814135       -0.8600788123        0.3293509777
 H          6.0665237950       -0.9829573599       -1.6871833992
 H          6.6373265362        0.4723745121       -0.8973102587
 O          4.5117464325        1.1764489587       -0.5332640325
 C          3.3060005699        1.7954552050       -0.2345594091
 O          3.2586686986        2.9867673976       -0.5877789513
 H         -1.5437063417        0.6999345154        0.9566958302
 C         -1.2898487287        1.0241073651       -0.0412463944
 C         -0.0198819298        1.5152740310       -0.3081267249
 C          0.2901235077        1.9053189329       -1.6073434077
 C         -0.6535128497        1.7984686597       -2.6124794753
 C         -1.9169896814        1.3029004358       -2.3439316198
 C         -2.2405194197        0.9177450131       -1.0475338627
 N         -3.5359985204        0.4641306055       -0.7479651894
 S         -3.7679998487       -0.7067320396        0.4457851636
 O         -3.6096119525       -0.0889381851        1.7379654355
 O         -2.9484031273       -1.8668328859        0.1764369289
 C         -5.4888693627       -1.0831730447        0.1707079923
 C         -5.8385937982       -2.2383582698       -0.5019533893
 C         -7.1806307493       -2.5019302596       -0.7284824857
 C         -8.1440668323       -1.6094769536       -0.2833704656
 C         -7.7774923126       -0.4542009283        0.3914061533
 C         -6.4380097691       -0.1856181664        0.6228114020
 H         -6.1065336716        0.6932508540        1.1506062835
 H         -8.5296282793        0.2357715736        0.7384047169
 H         -9.1874562429       -1.8167945303       -0.4611493269
 H         -7.4686183728       -3.4008030292       -1.2494681669
 H         -5.0551162180       -2.9061204595       -0.8227011849
 H         -4.0692756999        0.2424523406       -1.5782585393
 H         -2.6499592427        1.2182554047       -3.1317870541
 H         -0.4006181738        2.1013084815       -3.6175108481
 H          1.2739018940        2.2973114380       -1.8169550782
 C          0.9888569678        1.6275030950        0.8070606946
 H          0.6325116479        0.9859352425        1.6298732753
 C          1.0978148243        3.0446522041        1.3547441209
 C          0.5780611325        4.2506898832        0.6377329173
 C         -0.1285737338        3.7471318024        1.8580879042
 H         -0.0589634245        4.3167017291        2.7724508375
 H         -1.0762181778        3.2473162778        1.7199213832
 H          0.1055392052        4.1089236456       -0.3211162912
 H          1.1569828330        5.1587076411        0.7068649815
 H          2.0081749364        3.1845358481        1.9291236210
 O          1.6766417284       -1.0344589868        1.3123603698
