  62
        -98.93778468
 C         -1.9548897907       -1.6539131925        0.0920394049
 C         -1.8214054133       -0.4753348439       -0.6800525123
 C         -2.9782929475        0.4333656181       -0.6630973315
 C         -4.0731152821        0.1076730243        0.0472704872
 C         -5.3628753635        0.8816452456        0.1224201522
 C         -5.2880374604        2.2727984995        0.7803227474
 C         -5.0888508263        3.4281761443       -0.2081456765
 H         -5.4574834717        3.1201230865       -1.1874658851
 H         -5.7076322897        4.2706390448        0.1076416038
 C         -3.6557881597        3.9512264536       -0.3414777181
 H         -3.6122520897        4.5783656324       -1.2346527388
 H         -3.4281119995        4.5865546422        0.5174016023
 C         -2.5591136810        2.8890761170       -0.4279245615
 H         -1.6338854046        3.3863527204       -0.7227323369
 H         -2.3783301006        2.4623716422        0.5612718840
 C         -2.8543897033        1.7336321248       -1.4035782210
 H         -3.7584778129        1.9352060439       -1.9765455087
 H         -2.0251818282        1.6126293995       -2.1036140578
 H         -4.5025737355        2.2764893335        1.5355538281
 H         -6.2353983530        2.4279957358        1.2991396069
 H         -5.7714298531        0.9795095307       -0.8860991809
 H         -6.0451258004        0.2521003062        0.6974331025
 O         -4.1563386341       -1.0373530212        0.7796273366
 C         -3.1041063841       -1.9345502903        0.8311674818
 O         -3.3090623917       -2.9291758961        1.5564401491
 H          1.6518477307       -2.3380035000       -1.0437262035
 C          1.5947204365       -1.9113781766       -0.0549200814
 C          0.4209196681       -2.0031031364        0.6737144858
 C          0.3797045079       -1.4323527011        1.9437471767
 C          1.4857057961       -0.7930934086        2.4692755740
 C          2.6560252236       -0.6974473361        1.7356256046
 C          2.7030006936       -1.2530544561        0.4648368716
 N          3.8758609240       -1.1360169594       -0.2979181261
 S          4.6865219725        0.3265366807       -0.2797473874
 O          5.3568644549        0.4008791803       -1.5596196189
 O          5.5475959677        0.3863782846        0.8762751859
 C          3.4327498873        1.5914959897       -0.1537607081
 C          3.5787205248        2.5925989134        0.7855884971
 C          2.6028735482        3.5713167084        0.8809656574
 C          1.4979658097        3.5280301581        0.0446898101
 C          1.3671320333        2.5171610707       -0.8944354732
 C          2.3436910394        1.5411428021       -1.0002070380
 H          2.2457807808        0.7456151742       -1.7204877550
 H          0.5029131553        2.4613266958       -1.5362269979
 H          0.7334285065        4.2848837030        0.1272735832
 H          2.7028902494        4.3593887107        1.6100128689
 H          4.4465387522        2.5800132864        1.4251761316
 H          3.7966876170       -1.5005572560       -1.2359190862
 H          3.5294616245       -0.2037150261        2.1299796949
 H          1.4385390199       -0.3606762204        3.4571846466
 H         -0.5386959920       -1.4970004244        2.5117664902
 C         -0.8245094877       -2.6675260061        0.1412206140
 H         -1.1363459212       -3.4343987390        0.8642766860
 C         -0.6483397056       -3.3207024282       -1.2134764190
 C         -0.0036182576       -4.6693734023       -1.3176903941
 C         -1.4765462105       -4.5221271500       -1.5516027070
 H         -1.8525323978       -4.6225679307       -2.5588050917
 H         -2.1564680710       -4.8858930692       -0.7949350506
 H          0.6308073408       -4.8765950174       -2.1664415736
 H          0.3194109505       -5.1402970981       -0.4015971320
 H         -0.4695135228       -2.6038154298       -2.0065324198
 O         -0.8008725494       -0.1980847156       -1.3609443497
