  62
        -98.94487470
 C          2.6473719480        0.3035842043       -0.0056616943
 C          2.4555170618        1.4181918492       -0.8550988181
 C          1.7871432709        2.5751414889       -0.2522380640
 C          1.4055386352        2.5266066594        1.0373564984
 C          0.6658424843        3.6056659908        1.7797573106
 C         -0.8523238450        3.5560166094        1.5528837097
 C         -1.3210786894        4.0709903046        0.1905284104
 H         -2.4003654813        4.2215606555        0.2603314181
 H         -0.8679245820        5.0432308753       -0.0078771636
 C         -1.0311032386        3.1142167938       -0.9747018210
 H         -0.8357394554        2.1156312827       -0.5744445761
 H         -1.9156715994        3.0396910788       -1.6129930091
 C          0.1314515797        3.5383274653       -1.8730857507
 H          0.2792175237        2.7646549219       -2.6313044315
 H         -0.1248319584        4.4679069518       -2.3867310044
 C          1.4635542505        3.7398707033       -1.1398415527
 H          1.4387681579        4.6620763738       -0.5602103458
 H          2.2565740867        3.8163839759       -1.8881820556
 H         -1.1860616265        2.5229293443        1.6843905933
 H         -1.3204931100        4.1633657213        2.3312355275
 H          1.0511604825        4.5860659825        1.4974637972
 H          0.8623270833        3.4446164608        2.8418099981
 O          1.6609771549        1.4588761263        1.8378356924
 C          2.2326062678        0.3051209510        1.3274255890
 O          2.3378779930       -0.6250389544        2.1508028217
 O          2.8045774500        1.4345513436       -2.0677495100
 C          3.1666592736       -0.9945749076       -0.6021502346
 C          2.0587853747       -2.0141247159       -0.4860640255
 C          2.2174595498       -3.2902399035        0.0363186499
 C          1.1199707741       -4.1155667281        0.2218733107
 C         -0.1560162259       -3.6853221684       -0.0947340585
 C         -0.3173797380       -2.4241570788       -0.6486159185
 C          0.7820155585       -1.6133997816       -0.8611868043
 H          0.6388189035       -0.6228137674       -1.2770403146
 N         -1.6316414318       -1.9322238603       -0.9067684089
 S         -2.1878579361       -1.1363558942        0.4886502260
 O         -1.4333713091        0.0787747723        0.7080844825
 O         -2.1990520751       -2.0944701864        1.5642433486
 C         -3.8604531211       -0.7376900684        0.0159509189
 C         -4.7785323708       -1.7674091181       -0.0610536371
 C         -6.0740289425       -1.4801750206       -0.4592511402
 C         -6.4270945752       -0.1757952379       -0.7731558868
 C         -5.4944083318        0.8466436531       -0.6903585203
 C         -4.1959007622        0.5656592946       -0.2938914434
 H         -3.4382381542        1.3286602245       -0.2105093355
 H         -5.7714301686        1.8600167171       -0.9327221724
 H         -7.4362393354        0.0456864644       -1.0827665374
 H         -6.8026040352       -2.2720737335       -0.5240353086
 H         -4.4583249645       -2.7623038135        0.1995032954
 H         -1.6088809908       -1.2352605467       -1.6428814834
 H         -1.0229091101       -4.2957356313        0.0970598315
 H          1.2598338600       -5.0985981375        0.6453389704
 H          3.1986356957       -3.6303586300        0.3255939112
 H          3.3425761750       -0.7813542934       -1.6671178320
 C          4.4680413288       -1.4275766059        0.0343252045
 C          5.4321849616       -2.2811210751       -0.7331936987
 C          5.7516043013       -0.8412806053       -0.4696742339
 H          6.5246400698       -0.6044000850        0.2456222014
 H          5.6879604008       -0.1426623282       -1.2910772074
 H          5.9908551444       -3.0346544276       -0.1991490414
 H          5.1584851159       -2.5631105221       -1.7385781687
 H          4.3743728373       -1.5878336786        1.1024044030
