  62
        -98.93505090
 C          1.9732976891       -0.3895447209        0.0792436354
 C          3.0803334426       -1.1097843623       -0.4344815471
 C          4.3295880656       -0.3607302451       -0.6700749227
 C          4.3382824683        0.9650692285       -0.4405642458
 C          5.4871176095        1.9291677170       -0.5729799315
 C          6.4919405793        1.8150450864        0.5845155000
 C          6.8628464057        0.3866663904        0.9745488696
 H          7.4941222454        0.4394717020        1.8655325750
 H          5.9570537398       -0.1554894404        1.2520457464
 C          7.6216696503       -0.4028131438       -0.0895253802
 H          8.5418057635        0.1290466032       -0.3415967351
 H          7.9037334688       -1.3597928899        0.3570704223
 C          6.8560790566       -0.6909918826       -1.3829283580
 H          6.8290840629        0.1837203561       -2.0272543198
 H          7.4142028115       -1.4588665701       -1.9265967460
 C          5.4469161723       -1.2386685822       -1.1803162417
 H          5.4907318943       -2.0994841434       -0.5031360079
 H          5.0893311167       -1.6432571749       -2.1348495735
 H          7.3935662494        2.3672045359        0.3139983645
 H          6.0523984411        2.2962747725        1.4618111317
 H          5.9816992529        1.7927859540       -1.5301136026
 H          5.0560340524        2.9328378036       -0.5618375526
 O          3.2351854498        1.6278936236        0.0064799231
 C          2.0360002939        0.9896943202        0.2823090674
 O          1.1440445397        1.7569014574        0.6889353901
 O          3.0359490568       -2.3441075811       -0.6858403724
 C          0.6934709851       -1.1684672273        0.3299995568
 C         -0.4703321829       -0.4795715278       -0.3335163934
 C         -0.6357285267       -0.5994504250       -1.7099957482
 C         -1.6757420636        0.0420050555       -2.3564325245
 C         -2.5703711066        0.8200580917       -1.6434714467
 C         -2.4115519189        0.9483938789       -0.2699939227
 C         -1.3770398366        0.2884963253        0.3799909386
 H         -1.2525251431        0.4111207651        1.4444603519
 N         -3.3152005828        1.7414464843        0.4572464266
 S         -4.9489640474        1.5152054889        0.1897481987
 O         -5.3447228470        2.1856763113       -1.0237306276
 O         -5.6009005337        1.9622556664        1.4005392550
 C         -5.1300540975       -0.2488624758       -0.0064658042
 C         -5.4712177816       -0.7782523490       -1.2339683704
 C         -5.5468085552       -2.1552266037       -1.3720320124
 C         -5.2775503842       -2.9741262332       -0.2868240954
 C         -4.9399028162       -2.4267104460        0.9417487200
 C         -4.8624780719       -1.0512895233        1.0852404972
 H         -4.6094267145       -0.5910198740        2.0268853641
 H         -4.7334477008       -3.0662708603        1.7849167261
 H         -5.3320016376       -4.0456568587       -0.3973299264
 H         -5.8112443339       -2.5837770138       -2.3252570307
 H         -5.6728552904       -0.1059654467       -2.0516826931
 H         -3.1008572887        1.8104431117        1.4406250637
 H         -3.3777168160        1.3424717733       -2.1306218324
 H         -1.7892799767       -0.0589175173       -3.4251140078
 H          0.0702751459       -1.1968441282       -2.2702643829
 H          0.8592738599       -2.1281109276       -0.1857407725
 C          0.4305749420       -1.5052497194        1.7903263857
 C          1.5635170124       -1.8613388127        2.7045422739
 C          0.7938775303       -0.5949542388        2.9234589869
 H          0.1254880421       -0.5443655330        3.7711676047
 H          1.2669177625        0.3453198358        2.6876244779
 H          1.4302180667       -2.6747543079        3.4016076217
 H          2.5648109205       -1.7862879839        2.3059627794
 H         -0.4823488010       -2.0815537920        1.9074262489
