  62
        -98.94030883
 C         -2.7612977087       -0.3468975011       -0.1901465302
 C         -2.3438106280       -1.2162535158        0.8470277416
 C         -1.7239727382       -2.4765115648        0.4133170260
 C         -1.5298638578       -2.7202635287       -0.8941326303
 C         -0.8266130966       -3.9143186138       -1.4786944288
 C          0.7032614742       -3.7757909003       -1.4678625487
 C          1.3680768237       -3.9717466264       -0.1035425970
 H          0.9922678379       -4.8863321488        0.3568648923
 H          2.4349665638       -4.1137184349       -0.2876331341
 C          1.1908657417       -2.7924751185        0.8637161092
 H          0.9132888098       -1.9000413613        0.2956881695
 H          2.1455502164       -2.5774765962        1.3512689114
 C          0.1674690261       -3.0295785491        1.9746094860
 H          0.5261900759       -3.8201954128        2.6378459434
 H          0.0780625732       -2.1125144623        2.5629095666
 C         -1.2330864157       -3.4097430433        1.4802453349
 H         -1.2373593638       -4.4354762859        1.1131780473
 H         -1.9222743272       -3.3361461495        2.3255319286
 H          0.9648805921       -2.7884370303       -1.8589810873
 H          1.1031948533       -4.5253124124       -2.1550676481
 H         -1.1191499257       -4.8194178556       -0.9454695092
 H         -1.1597456490       -3.9964210442       -2.5153864567
 O         -1.9639673521       -1.8724359636       -1.8639232485
 C         -2.5588965973       -0.6683012847       -1.5366762687
 O         -2.8790925389        0.0284502226       -2.5221454427
 H         -0.7676733323        0.6712877107        0.9831350432
 C         -0.8739386171        1.6348119265        0.5038353544
 C         -2.1072860756        2.0216508567        0.0025860994
 C         -2.2093375619        3.2708142233       -0.5979075226
 C         -1.1010967366        4.0915747420       -0.7176279788
 C          0.1388861599        3.6742354940       -0.2655691412
 C          0.2448164815        2.4361271410        0.3492852094
 N          1.5287873178        1.9502704230        0.7294369396
 S          2.2551119775        1.2447762062       -0.6370161296
 O          2.4499646182        2.2883067187       -1.6117582197
 O          1.4935713177        0.0948485371       -1.0761279093
 C          3.8333934404        0.7322213459        0.0148749891
 C          4.6607362533        1.7039832612        0.5449570538
 C          5.8866322006        1.3251559266        1.0676522406
 C          6.2626811063       -0.0101663450        1.0503105133
 C          5.4223378930       -0.9722276361        0.5117772994
 C          4.1935322835       -0.6004528088       -0.0121185031
 H          3.5074028239       -1.3125257849       -0.4417640078
 H          5.7175056715       -2.0090513201        0.4967040807
 H          7.2174527662       -0.3028437140        1.4577464182
 H          6.5439350603        2.0701618672        1.4859889502
 H          4.3282689776        2.7283672053        0.5328212220
 H          1.4338787029        1.2134056196        1.4197061300
 H          1.0224124465        4.2745510339       -0.4062694742
 H         -1.1974297385        5.0544432060       -1.1956729020
 H         -3.1595829823        3.5861164187       -1.0023317130
 C         -3.2789807769        1.0635507702        0.0442708704
 H         -3.9235352160        1.3014214216       -0.8140359472
 C         -4.0849748111        1.2486330871        1.3135041076
 C         -5.1241240731        2.3262912603        1.3723918603
 C         -5.5385508026        0.8871916010        1.3211007690
 H         -5.9476063150        0.4301081172        2.2090624943
 H         -5.9631448476        0.5110748892        0.4015194831
 H         -5.2504592051        2.8654312101        2.2984083993
 H         -5.2796419714        2.9265765327        0.4889993089
 H         -3.5204973572        1.0436850957        2.2131877303
 O         -2.4423613840       -0.9717264708        2.0794103402
