  62
        -98.93824339
 C         -1.3960749708       -1.0840340843       -0.4777466664
 C         -2.5008083082       -1.1681265388        0.4046331461
 C         -3.4280348971       -0.0250422064        0.4409233545
 C         -3.1856993967        1.0400467285       -0.3454016290
 C         -3.9064781467        2.3649617625       -0.4852707237
 C         -5.2951238597        2.5658735398        0.1152153458
 C         -6.4038184340        1.7581963577       -0.5592644277
 H         -6.5704923628        2.1674004388       -1.5588512035
 H         -7.3232977426        1.8946061955        0.0139646530
 C         -6.1299422771        0.2643243361       -0.7131154682
 H         -5.2612032404        0.1157323391       -1.3575832107
 H         -6.9888898730       -0.1824327164       -1.2210885929
 C         -5.9143106399       -0.4982082811        0.5924665145
 H         -5.8885892245       -1.5641072701        0.3508561428
 H         -6.7596221883       -0.3275109634        1.2618821362
 C         -4.6164571538       -0.1652824479        1.3484616567
 H         -4.3911766889       -1.0007244109        2.0179966076
 H         -4.7340396078        0.7225479383        1.9657697952
 H         -5.5366403798        3.6253604704       -0.0067116296
 H         -5.2737183259        2.3701691197        1.1832661558
 H         -3.9474238005        2.5715969813       -1.5597315232
 H         -3.2282760475        3.1112001681       -0.0552767782
 O         -2.1094005599        1.0800243227       -1.1803099113
 C         -1.1840951073        0.0479850635       -1.2640152636
 O         -0.2657650985        0.2740202022       -2.0724874324
 O         -2.7048355918       -2.1707195090        1.1427979082
 C         -0.4339919640       -2.2578300775       -0.4684295493
 C          0.6022966029       -2.0927053698        0.6169691072
 C          1.0239114545       -3.1797146818        1.3744084526
 C          1.9747448567       -3.0160817705        2.3662744540
 C          2.5137066604       -1.7698169309        2.6278373186
 C          2.0847670182       -0.6709835787        1.8888246208
 C          1.1459408339       -0.8442913857        0.8822470726
 H          0.8112127189        0.0129834507        0.3223510119
 N          2.5708524565        0.6055192897        2.1808684207
 S          2.5256272818        1.9108014283        1.1462861998
 O          3.2625163038        2.9300991922        1.8643190063
 O          1.1654202662        2.2396546043        0.8019764735
 C          3.4762873137        1.4209631880       -0.2803851218
 C          4.8490046555        1.3627191069       -0.1206304651
 C          5.6371327548        0.9798160069       -1.1920301622
 C          5.0420735940        0.6646852741       -2.4050709051
 C          3.6661180543        0.7317264787       -2.5490276075
 C          2.8681394820        1.1095883940       -1.4783040970
 H          1.7940418292        1.1524543158       -1.5745774193
 H          3.1957414008        0.4899650683       -3.4885669037
 H          5.6531351060        0.3679981551       -3.2428491592
 H          6.7083159848        0.9301594495       -1.0810549852
 H          5.2719559947        1.6380347756        0.8317691293
 H          3.3287537014        0.6520038412        2.8435191411
 H          3.2447204229       -1.6393849881        3.4106848937
 H          2.2950037488       -3.8668456845        2.9481423387
 H          0.5860183656       -4.1510617577        1.1981808947
 H         -1.0508408270       -3.1298188701       -0.1958839540
 C          0.1872041073       -2.5451807139       -1.8277719121
 C          1.6113422516       -2.2280540194       -2.1590969314
 C          1.1845353327       -3.6537135282       -1.9934736546
 H          1.1152193627       -4.2783262067       -2.8710831367
 H          1.5116952712       -4.1717114683       -1.1054827297
 H          1.8221737956       -1.8569246030       -3.1495858314
 H          2.2232563283       -1.7810425023       -1.3906335121
 H         -0.5311928560       -2.4151801432       -2.6306637245
