  62
        -98.94225326
 C         -1.2001772097       -0.8970581687        0.4194057404
 C         -2.0750679599       -0.6931023095       -0.6715012696
 C         -3.0829334697        0.3712701207       -0.5139843904
 C         -3.0956219194        1.1123686218        0.6095131089
 C         -3.9616879492        2.2866137922        1.0159966180
 C         -5.2697752193        2.5835836218        0.2867764479
 C         -6.3556906794        1.5222722521        0.4578130990
 H         -6.6906316692        1.5314248030        1.4980225791
 H         -7.2056685795        1.8027827216       -0.1680741511
 C         -5.9394243997        0.0931771817        0.1185650003
 H         -6.8101548297       -0.5515845781        0.2650118410
 H         -5.1707273396       -0.2407687778        0.8184167905
 C         -5.4373268999       -0.1205245797       -1.3083345396
 H         -6.1753485000        0.2571903398       -2.0183954198
 H         -5.3430799501       -1.1982622098       -1.4647114486
 C         -4.0725628299        0.5130123298       -1.6341004904
 H         -3.6452638401       -0.0215371810       -2.4876938700
 H         -4.1763948598        1.5563259296       -1.9236360213
 H         -5.0804207494        2.7668319008       -0.7668116523
 H         -5.6520376191        3.5183324722        0.7062328471
 H         -3.3154568191        3.1690950021        0.9427580571
 H         -4.1706183091        2.1460211832        2.0813930981
 O         -2.1934398393        0.9119415126        1.6149806889
 C         -1.2310283495       -0.0785143676        1.5459936597
 O         -0.4724724593       -0.1303190568        2.5366016196
 O         -2.0194629401       -1.3621729305       -1.7365641990
 C         -0.1293095799       -1.9690794989        0.3490952812
 C          0.8528693200       -1.6542071100       -0.7542456992
 C          1.4048818497       -2.6154495809       -1.5915243484
 C          2.3271538596       -2.2522609419       -2.5581395289
 C          2.7418390098       -0.9392739320       -2.6914474401
 C          2.2001267900        0.0281314388       -1.8531012409
 C          1.2575550501       -0.3354097602       -0.9057895405
 H          0.8210438803        0.4304311004       -0.2832477311
 N          2.5958831202        1.3729094487       -1.9303937322
 S          2.7445985205        2.2435978900       -0.5080251130
 O          1.4469692507        2.6469855806       -0.0257250732
 O          3.6503925606        3.3220961795       -0.8450215442
 C          3.5428562406        1.1208027309        0.6266439979
 C          4.8578481505        0.7895501805        0.3581813680
 C          5.5053969605       -0.1182082689        1.1788046587
 C          4.8281808906       -0.6834004178        2.2491610393
 C          3.5122629207       -0.3362352674        2.5089471892
 C          2.8586126507        0.5746401719        1.6926870585
 H          1.8313926907        0.8491786123        1.8779365084
 H          2.9763573007       -0.7694867366        3.3386544597
 H          5.3279538706       -1.3957921173        2.8863443699
 H          6.5310455304       -0.3848162892        0.9813050988
 H          5.3528606304        1.2587232496       -0.4765179525
 H          3.3566850201        1.5579446580       -2.5675717425
 H          3.4685049497       -0.6615571028       -3.4391832705
 H          2.7391408994       -3.0064464025       -3.2110735683
 H          1.1074662896       -3.6464354107       -1.4928722674
 H          0.4189225403       -1.9091959781        1.3018598311
 C         -0.7529681201       -3.3441252989        0.2316868426
 C         -0.0676953102       -4.5370796985        0.8254452236
 C         -1.3084393400       -3.9911644277        1.4637444633
 H         -2.2256308701       -4.5547818077        1.3818287639
 H         -1.2120435498       -3.4494611369        2.3938517028
 H         -0.1349365804       -5.4814933089        0.3068099944
 H          0.8726666399       -4.3744431581        1.3299754033
 H         -1.3035384103       -3.4730743797       -0.6926573072
