  62
        -98.93519357
 C          2.0839990142        0.9162795417        0.6735137292
 C          1.8750107311        0.1641697984       -0.5067979037
 C          1.9898723413       -1.3039095682       -0.3897896057
 C          2.2878568362       -1.8418205906        0.8062339588
 C          2.5115125086       -3.2928794258        1.1370938007
 C          3.8763825650       -3.8099644727        0.6467606924
 C          4.2990011880       -3.3198804886       -0.7365578427
 H          4.2830686961       -2.2284334573       -0.7502134659
 H          5.3345460930       -3.6312038220       -0.8969718396
 C          3.4665629205       -3.8527604866       -1.9001094636
 H          3.8954431149       -3.4490243648       -2.8206434807
 H          3.5605498006       -4.9405073372       -1.9374216720
 C          1.9785915353       -3.5010994483       -1.8712524324
 H          1.5573540570       -3.7797513426       -2.8418032577
 H          1.4546688200       -4.0941663765       -1.1264414210
 C          1.6695489681       -2.0189866289       -1.6791463224
 H          0.5927420888       -1.8618963937       -1.8281327856
 H          2.1625866188       -1.4441716375       -2.4713552667
 H          4.6345359672       -3.4774014203        1.3597360386
 H          3.8570472380       -4.9007812717        0.6589196507
 H          1.6966161453       -3.8886792694        0.7355380640
 H          2.4770173483       -3.3765651174        2.2256839413
 O          2.4854527930       -1.0779352956        1.9199244632
 C          2.3443391524        0.2955109282        1.8950820573
 O          2.4791677604        0.8469985231        3.0076905107
 O          1.6126965424        0.6814119371       -1.6242262869
 C          1.8854806386        2.4229774902        0.7012116559
 C          0.6285466076        2.7648836267       -0.0624918876
 C          0.5570358645        3.7289530793       -1.0584739423
 C         -0.6312381245        3.9456309035       -1.7351967701
 C         -1.7585890087        3.1992971865       -1.4490741854
 C         -1.6994247597        2.2390898422       -0.4443851924
 C         -0.5213182152        2.0517745919        0.2557355604
 H         -0.4831701504        1.3002736442        1.0324114600
 N         -2.8307248152        1.4675223097       -0.1154321321
 S         -2.5960425674       -0.1418098874        0.3391573795
 O         -2.1811619441       -0.1817685964        1.7206569476
 O         -1.7441700321       -0.8251959512       -0.6077985325
 C         -4.2723731714       -0.7376511258        0.2077217729
 C         -5.1687621013       -0.3973060404        1.2033992154
 C         -6.4830690406       -0.8228725269        1.0959349460
 C         -6.8775057249       -1.5772748856        0.0006344302
 C         -5.9664980939       -1.9127947580       -0.9894155739
 C         -4.6504331908       -1.4884925944       -0.8888451360
 H         -3.9052745252       -1.7288725242       -1.6302760002
 H         -6.2747996973       -2.5017337790       -1.8381317016
 H         -7.9009424971       -1.9076293658       -0.0804525105
 H         -7.1933587996       -0.5654873163        1.8649276301
 H         -4.8127267044        0.1822564489        2.0391012405
 H         -3.5572993773        1.5356676227       -0.8160853851
 H         -2.6749321408        3.3496741409       -1.9996157789
 H         -0.6721917462        4.6920581373       -2.5140648636
 H          1.4365159329        4.2900665865       -1.3281717730
 H          1.7077471041        2.6631103941        1.7637552645
 C          3.1011319771        3.2299947298        0.2703864380
 C          4.4814398461        2.6518738707        0.3562627282
 C          3.8609554840        2.9138219743       -0.9813774082
 H          4.2439853597        3.7347228834       -1.5698298723
 H          3.5206002954        2.0745627587       -1.5666609686
 H          5.2842802444        3.2927145474        0.6888886797
 H          4.5743051268        1.6277715254        0.6884540524
 H          3.0066592180        4.2788770535        0.5341296728
