  62
        -98.94317086
 C         -1.5374091771       -1.8009253296        0.2968105230
 C         -0.3968423296       -1.6230607861        1.1188781856
 C          0.8029654076       -2.3768739478        0.7200146456
 C          0.7942819204       -3.0907330115       -0.4183697481
 C          1.9734569930       -3.8364735818       -0.9721559092
 C          2.8040978005       -2.9588810758       -1.9186435130
 C          3.1619939135       -1.5844506180       -1.3506662379
 H          2.2519888681       -0.9861141233       -1.2579428040
 H          3.7881729223       -1.0848519124       -2.0943979421
 C          3.8986823302       -1.6200176017       -0.0045579407
 H          4.7205816007       -0.9021375340       -0.0402946601
 H          4.3346061645       -2.6078366051        0.1515478728
 C          3.0358302511       -1.2463652862        1.2011453186
 H          2.5108137167       -0.3114605031        0.9943143266
 H          3.6975838700       -1.0721370184        2.0535117571
 C          1.9974428493       -2.2895293535        1.6280510543
 H          1.6089511220       -1.9873012620        2.6049130265
 H          2.4730053077       -3.2669767785        1.7316437642
 H          2.2339463167       -2.8045513256       -2.8380421353
 H          3.7189344911       -3.4992307513       -2.1718611162
 H          2.5936263956       -4.1850684305       -0.1481721152
 H          1.6028791985       -4.7004924533       -1.5269589971
 O         -0.2990203481       -3.1879701937       -1.2183516990
 C         -1.4802869533       -2.5518752507       -0.8793909609
 O         -2.4126342301       -2.7387814472       -1.6898501976
 H         -0.9082599013        0.6964791237        0.2778070485
 C         -1.8111714529        1.0119614754       -0.2186287663
 C         -2.9334920310        0.1981301251       -0.1711658732
 C         -4.0893241623        0.6170881286       -0.8188414950
 C         -4.1141832979        1.8223871615       -1.4989469892
 C         -2.9809691641        2.6118888426       -1.5750919536
 C         -1.8166121562        2.1952759055       -0.9394862634
 N         -0.6346820561        2.9516029163       -1.0115633707
 S          0.8275495336        2.1859016639       -1.3313871482
 O          1.4901739772        3.0161775885       -2.3179173575
 O          0.6291566749        0.8050068747       -1.7034652620
 C          1.7564752216        2.2895421546        0.1859676144
 C          3.1340921999        2.2449087615        0.0773410712
 C          3.9038545210        2.2956042361        1.2276588564
 C          3.2854085850        2.3839482537        2.4655732138
 C          1.9036915952        2.4299172421        2.5583270435
 C          1.1272655247        2.3852392408        1.4099223342
 H          0.0516683712        2.4176890110        1.4633555731
 H          1.4205811302        2.4931455953        3.5199397675
 H          3.8830674353        2.4165554131        3.3627246313
 H          4.9788371960        2.2603921317        1.1551198020
 H          3.5703881400        2.1738518408       -0.9060181482
 H         -0.7115152057        3.7914083992       -1.5673762036
 H         -2.9909147785        3.5377388912       -2.1302993246
 H         -5.0185718758        2.1402005290       -1.9952780502
 H         -4.9640740446       -0.0165228921       -0.8067215528
 C         -2.8713502756       -1.1195047908        0.5598408987
 H         -3.6331534519       -1.7783890548        0.1116924578
 C         -3.1960279353       -0.9847821629        2.0413950737
 C         -3.1448248010        0.3194537255        2.7728171371
 C         -4.4668413801       -0.3200707113        2.4815255114
 H         -5.0210422969       -0.7607554020        3.2962965073
 H         -5.0838884299        0.1342081653        1.7215324924
 H         -2.8720104976        1.2005681973        2.2130613751
 H         -2.7689444827        0.3121254569        3.7839996363
 H         -2.8887711916       -1.8620032539        2.6008259144
 O         -0.3569543734       -0.8868332589        2.1372330353
