  62
        -98.94492841
 C          2.2071464566        0.9776449720        0.5426437445
 C          2.3082846077        0.1284817924       -0.5861677146
 C          3.1107806624       -1.0868785904       -0.3963483064
 C          3.6532984392       -1.3514562980        0.8060354367
 C          4.4812212142       -2.5572895015        1.1591087142
 C          5.9647081714       -2.4240472993        0.7881063861
 C          6.2726000036       -2.5127858472       -0.7071418957
 H          7.3542572514       -2.6244310239       -0.8046303905
 H          5.8139779659       -3.4126219833       -1.1183103903
 C          5.8280435895       -1.2888301790       -1.5200649807
 H          5.6438416350       -0.4499961063       -0.8449792341
 H          6.6332762981       -0.9870871542       -2.1934718028
 C          4.5825978614       -1.5152543019       -2.3773585432
 H          4.7955756884       -2.2629549912       -3.1445224029
 H          4.3366935110       -0.5768229133       -2.8806045306
 C          3.3464431478       -1.9653846102       -1.5875581589
 H          2.4713777598       -1.8830573256       -2.2376096082
 H          3.4539351852       -3.0054397053       -1.2794196339
 H          6.5001468749       -3.2295747924        1.2957837441
 H          6.3387317414       -1.4762046055        1.1817891182
 H          4.0622301416       -3.4428856323        0.6802267301
 H          4.4065998292       -2.6796305144        2.2419195335
 O          3.4874779983       -0.5339882988        1.8805661697
 C          2.7775060477        0.6521403279        1.7722063959
 O          2.7150494258        1.3119486967        2.8302134629
 O          1.7597800845        0.3698223760       -1.6924227327
 C          1.4262972534        2.2755959383        0.4433438396
 C         -0.0029817854        1.9910533877        0.0479994142
 C         -0.6826690310        2.7031824011       -0.9311183219
 C         -1.9911814347        2.3821454166       -1.2492110023
 C         -2.6511430564        1.3568479796       -0.5976524572
 C         -1.9824246009        0.6410928590        0.3869873110
 C         -0.6733315258        0.9667286115        0.7052578215
 H         -0.1524459434        0.4051193030        1.4722714622
 N         -2.6473147200       -0.3933095874        1.0696285695
 S         -3.4401690878       -1.5645976062        0.1625102555
 O         -3.4700122970       -2.7374262873        1.0099548104
 O         -2.8420183773       -1.7276873689       -1.1419267786
 C         -5.0941944151       -0.9237135660        0.0052902849
 C         -5.7942524190       -0.6419800273        1.1621194426
 C         -7.0829652107       -0.1432981523        1.0596804744
 C         -7.6477467983        0.0612189949       -0.1905703744
 C         -6.9334993606       -0.2308967626       -1.3424172376
 C         -5.6432592848       -0.7291275122       -1.2468848972
 H         -5.0480619510       -0.9665352551       -2.1144443610
 H         -7.3743244084       -0.0722322002       -2.3134256223
 H         -8.6508106903        0.4500283476       -0.2676769433
 H         -7.6416020368        0.0842465579        1.9532293077
 H         -5.3200906257       -0.8198681254        2.1128625656
 H         -2.0847567524       -0.8276342391        1.7871672850
 H         -3.6674927397        1.1001478590       -0.8473381383
 H         -2.5045747256        2.9392098581       -2.0179845349
 H         -0.1849821653        3.5033125754       -1.4536740596
 H          1.4197792854        2.7056003895        1.4559034920
 C          2.1333127483        3.2362186886       -0.4902571362
 C          2.0131084159        4.7157913280       -0.2868411916
 C          3.3010032964        4.0181312052        0.0290898767
 H          4.1483205716        4.1740950798       -0.6216642071
 H          3.5684086593        3.8770871870        1.0665576795
 H          1.9792280791        5.3548189835       -1.1562688318
 H          1.4087139062        5.0595301594        0.5388234093
 H          2.1948267138        2.8590066465       -1.5046742285
