  62
        -98.94434162
 C          1.3369512260        1.5140416062       -0.1247951396
 C          1.3419289171        0.0978771081       -0.1646643513
 C          2.5038161731       -0.5560757967        0.4593296191
 C          3.4670356141        0.1933661659        1.0235281828
 C          4.7267897296       -0.3448488203        1.6363896189
 C          5.8562169058       -0.4302553154        0.5999589466
 C          5.4486248860       -1.1150695501       -0.7047053408
 H          4.7029800696       -0.4989690828       -1.2124682363
 H          6.3322477328       -1.1428841974       -1.3462090634
 C          4.8973344061       -2.5371476490       -0.5308845747
 H          5.3520205042       -3.1826504417       -1.2853793887
 H          5.1851589048       -2.9283170630        0.4455853159
 C          3.3809972310       -2.6542153308       -0.6974924099
 H          3.1293700924       -3.7153859440       -0.7691931425
 H          3.0781606581       -2.1814552896       -1.6349084599
 C          2.5381430283       -2.0583275857        0.4367477543
 H          1.5029234755       -2.3761948617        0.2845353173
 H          2.8832020795       -2.4490104877        1.3958571225
 H          6.6955475215       -0.9657754968        1.0474921935
 H          6.1876245780        0.5839075432        0.3647776215
 H          4.5292963091       -1.3295754587        2.0552315041
 H          5.0332464214        0.3273247219        2.4396278720
 O          3.4229057562        1.5499260520        1.0538469587
 C          2.3670569288        2.2380683370        0.4836257445
 O          2.4596276093        3.4792147453        0.5760516157
 O          0.4415990226       -0.6055655570       -0.6916893810
 C          0.2117903718        2.3488356275       -0.7184822726
 C         -0.9893695425        2.3333880433        0.1968997236
 C         -1.2780754274        3.4421745205        0.9855177281
 C         -2.3697434199        3.4373207862        1.8346575826
 C         -3.1986646262        2.3324740059        1.9047175578
 C         -2.9118755861        1.2139302702        1.1292716429
 C         -1.8100804296        1.2176066570        0.2865670602
 H         -1.5850004146        0.3384572722       -0.2938875188
 N         -3.7114131635        0.0684229665        1.2126508991
 S         -3.9296704233       -0.9531003405       -0.0918620932
 O         -3.9557679709       -0.2314453839       -1.3426484120
 O         -5.1426369842       -1.6765655147        0.2368488427
 C         -2.5703712809       -2.0978690791       -0.0367640558
 C         -1.9898142750       -2.5142244492       -1.2162849916
 C         -0.9835321576       -3.4646309786       -1.1693846539
 C         -0.5785489284       -3.9792532583        0.0513498609
 C         -1.1695928211       -3.5471210678        1.2289554587
 C         -2.1784474362       -2.5996336690        1.1877403861
 H         -2.6590242634       -2.2399848073        2.0826797844
 H         -0.8427812395       -3.9425032432        2.1776428001
 H          0.2066439439       -4.7187633580        0.0861181677
 H         -0.5129231439       -3.7912397703       -2.0828580482
 H         -2.3251260924       -2.0781538035       -2.1440046277
 H         -4.5471036529        0.1590776079        1.7708998844
 H         -4.0571545373        2.3298837604        2.5591735833
 H         -2.5830513367        4.3049535092        2.4406672036
 H         -0.6296370912        4.3053105214        0.9355352627
 H          0.5944150757        3.3781753080       -0.7481628963
 C         -0.1528316675        1.9367722508       -2.1306869009
 C         -0.8604747334        2.9206923765       -3.0108052963
 C          0.5680162999        2.5596349504       -3.2863108153
 H          0.7902451056        1.9466110430       -4.1469057119
 H          1.3301504486        3.2928720881       -3.0640825907
 H         -1.6259440602        2.5548478244       -3.6780604791
 H         -1.0655738417        3.8992297660       -2.6028860006
 H         -0.4282272293        0.8947061842       -2.2233001690
