  62
        -98.94891324
 C         -1.1054560181       -1.6572954400        0.2090361586
 C         -0.3353993582       -2.5589676387       -0.5603811230
 C          1.0595956722       -2.7358819586       -0.1373175340
 C          1.5198207725       -2.0443013097        0.9210926765
 C          2.9199541229       -2.1293347597        1.4553071956
 C          3.8338298620       -1.0651026786        0.8352628463
 C          3.7554214911       -0.9853155368       -0.6894394236
 H          2.7702591807       -0.6153853269       -0.9867294826
 H          4.4802137705       -0.2337134161       -1.0128743232
 C          4.0463732912       -2.3086006858       -1.4114474253
 H          4.6996066006       -2.1029649546       -2.2622796055
 H          4.5838943319       -2.9845783264       -0.7447678464
 C          2.8098223512       -3.0186328557       -1.9656289454
 H          3.1452783311       -3.7936806048       -2.6604932765
 H          2.2081282105       -2.3051419853       -2.5356695142
 C          1.9050007521       -3.6941684973       -0.9271415956
 H          2.5073785728       -4.3197263879       -0.2648346567
 H          1.2038468121       -4.3389440270       -1.4654693560
 H          4.8618683323       -1.2782320185        1.1351645954
 H          3.5507650118       -0.0919302591        1.2397818776
 H          2.8815387334       -1.9742413909        2.5349980758
 H          3.3148145232       -3.1237991493        1.2551051542
 O          0.7560420925       -1.1706085408        1.6253366280
 C         -0.5696655078       -0.9464275710        1.2832230491
 O         -1.1519911277       -0.1131565521        2.0013182204
 O         -0.7971895885       -3.1946944778       -1.5482994234
 C         -2.5496902784       -1.4018310602       -0.1769950703
 C         -2.7786251093        0.0651798901       -0.4477737584
 C         -3.9850921394        0.7030185192       -0.1832209070
 C         -4.1319196001        2.0558757995       -0.4370235253
 C         -3.0798433907        2.8051441005       -0.9320639651
 C         -1.8697907006        2.1740990713       -1.2032073565
 C         -1.7420650499        0.8114206111       -0.9903854582
 H         -0.8032725898        0.3327577018       -1.2223131393
 N         -0.7719095812        2.9022046624       -1.6882029263
 S          0.8091996691        2.5095392827       -1.3535945678
 O          1.5658055083        3.6146652436       -1.9054390869
 O          1.1360496094        1.2098103234       -1.8884104595
 C          1.0658993402        2.5030377907        0.4163089421
 C          2.3830575705        2.3516864408        0.8068287711
 C          2.6945901013        2.3524886994        2.1557876409
 C          1.6836335418        2.4999545879        3.0933827817
 C          0.3697872415        2.6565918378        2.6870661627
 C          0.0521935907        2.6635886292        1.3367266029
 H         -0.9725257695        2.7661549191        1.0205709336
 H         -0.4206672981        2.7589501366        3.4124423133
 H          1.9218045425        2.4898490868        4.1453738816
 H          3.7196366016        2.2364398595        2.4715643802
 H          3.1341074201        2.2362935921        0.0407998205
 H         -0.8996132017        3.9021453224       -1.7349712951
 H         -3.1866097313        3.8654099906       -1.1031381738
 H         -5.0743759302        2.5389560888       -0.2289344342
 H         -4.8082566289        0.1414318584        0.2273160929
 H         -2.7071574788       -1.9568642391       -1.1146131608
 C         -3.4844296376       -1.9563856618        0.8803065596
 C         -4.8057647775       -2.5510972619        0.4969735497
 C         -3.6894721469       -3.4388224720        0.9557694780
 H         -3.7601115261       -3.9017902631        1.9284921675
 H         -3.1800685471       -4.0445980409        0.2203515770
 H         -5.6472234272       -2.4073419031        1.1580116304
 H         -5.0634184082       -2.5676198708       -0.5513822001
 H         -3.4177483672       -1.4122634028        1.8157645402
