  62
        -98.93600202
 C         -2.3870478812       -1.1706339848       -0.0612441808
 C         -3.4832676562       -0.8642101342        0.7832959978
 C         -4.4945177158        0.0502823234        0.2344830520
 C         -4.3290422916        0.5373692498       -1.0087683435
 C         -5.2230742457        1.5426973299       -1.6772868626
 C         -4.9307245692        2.9538470189       -1.1282112711
 C         -6.0875380054        3.5789352351       -0.3482024431
 H         -5.6971516187        4.4608131319        0.1641193416
 H         -6.8490973018        3.9179621298       -1.0536675404
 C         -6.7712085785        2.6687383461        0.6767361370
 H         -7.3729924557        3.3125018022        1.3217774130
 H         -7.4678303155        2.0008986226        0.1677705097
 C         -5.8372386611        1.8265618499        1.5554290376
 H         -4.8525931631        2.2893995672        1.6248783598
 H         -6.2500968484        1.8048205855        2.5660291876
 C         -5.6809333657        0.3621429963        1.1042727836
 H         -6.5964305108        0.0341909323        0.6042143558
 H         -5.5491060983       -0.2641169616        1.9914914324
 H         -4.0474557556        2.8959248140       -0.4885808198
 H         -4.6762207238        3.6198790474       -1.9540267434
 H         -5.0164111293        1.5007452934       -2.7468392186
 H         -6.2645259037        1.2755796429       -1.5124829614
 O         -3.2633380942        0.2219975486       -1.7883856465
 C         -2.2649666359       -0.6319539784       -1.3416341538
 O         -1.3563553455       -0.8239271787       -2.1719287233
 O         -3.6107938273       -1.3385496747        1.9438137709
 C         -1.3120363537       -2.1011961485        0.4761092085
 C         -0.0515491018       -1.3049276930        0.7077542442
 C          0.0754733873       -0.5612085271        1.8779684654
 C          1.2027858506        0.2040051024        2.1093964308
 C          2.2234977391        0.2524566181        1.1755798205
 C          2.1042421323       -0.4804683234        0.0029193675
 C          0.9768750322       -1.2611849678       -0.2204555970
 H          0.8909514098       -1.8154873898       -1.1417721685
 N          3.1214751366       -0.4124906033       -0.9629080537
 S          4.7128616972       -0.6219334992       -0.4835559226
 O          5.4120535957       -1.0672043115       -1.6692278687
 O          4.8091213263       -1.4776620605        0.6765939073
 C          5.2592289298        1.0228023818       -0.0744281449
 C          5.0954898651        2.0173325671       -1.0186782018
 C          5.5269119054        3.3000205589       -0.7209019233
 C          6.1143755597        3.5645647673        0.5074720200
 C          6.2745705805        2.5545058326        1.4435011064
 C          5.8440615856        1.2693278133        1.1522150315
 H          5.9419765824        0.4540668132        1.8512460358
 H          6.7313769862        2.7621780192        2.3977933986
 H          6.4490876217        4.5640752907        0.7361214426
 H          5.4031754336        4.0881638903       -1.4461400977
 H          4.6355322277        1.7710191023       -1.9613033416
 H          2.9174042580       -0.9275548654       -1.8066792832
 H          3.1042283860        0.8495574295        1.3471761922
 H          1.2885382239        0.7712924734        3.0237107192
 H         -0.7272494536       -0.5885230072        2.6017132382
 H         -1.6837572694       -2.4358235313        1.4540894328
 C         -1.1128740968       -3.3152405079       -0.4069738719
 C         -0.3401891272       -4.4851730894        0.1226029982
 C         -1.8223840632       -4.5909482597       -0.0707472592
 H         -2.1949409106       -5.2011112749       -0.8798756756
 H         -2.4530612435       -4.5963687919        0.8060468896
 H          0.3079384863       -5.0249924120       -0.5510939287
 H          0.0377622878       -4.4155351585        1.1315570250
 H         -1.0081787145       -3.0723970137       -1.4574140968
