  62
        -98.93807013
 C         -2.5048375754       -1.1981178241        0.2484509964
 C         -2.7097886721       -0.3620157593       -0.8724338166
 C         -3.5955883614        0.8046579662       -0.6775526896
 C         -4.1394099963        1.0108488989        0.5363714326
 C         -5.0273954621        2.1437059791        0.9778471612
 C         -4.2496406174        3.4498558629        1.2097467196
 C         -3.2086034653        3.7779982035        0.1422765035
 H         -2.6506547478        4.6548531885        0.4816782593
 H         -2.4980798123        2.9522951591        0.0675930576
 C         -3.7718554873        4.0898214076       -1.2422026404
 H         -4.4439707035        4.9477746910       -1.1694563635
 H         -2.9304244205        4.3796752305       -1.8766247495
 C         -4.5170658261        2.9468665649       -1.9341767611
 H         -4.6496075987        3.2329996100       -2.9816260021
 H         -5.5140822140        2.8227465813       -1.5202614422
 C         -3.7772449244        1.6125557191       -1.9399636974
 H         -4.2769507156        0.9413810676       -2.6489206225
 H         -2.7704775901        1.7614565800       -2.3466171476
 H         -4.9662418195        4.2691511215        1.2868044121
 H         -3.7289052616        3.3665526351        2.1670961125
 H         -5.8282329133        2.2907724692        0.2594534999
 H         -5.4805873117        1.8371862394        1.9232013637
 O         -3.8948269444        0.1853470325        1.5958852369
 C         -3.0817839246       -0.9253425152        1.4867081873
 O         -2.9455648029       -1.5756453435        2.5446377327
 H         -0.2002143092       -0.3902156770        1.1149184522
 C          0.3685015029       -0.9255951989        0.3630071150
 C         -0.2143496075       -2.0144477621       -0.2740463472
 C          0.5341272817       -2.7029652467       -1.2194786664
 C          1.8207483988       -2.2952659109       -1.5278810545
 C          2.3885751498       -1.1998815644       -0.9044429877
 C          1.6538889145       -0.5108843988        0.0519358502
 N          2.2213085579        0.6093363175        0.6879601468
 S          3.7089615739        0.4003060139        1.4425160576
 O          3.8855508312       -0.9613084465        1.8922832278
 O          3.7645344736        1.4261737565        2.4612905198
 C          4.8935789159        0.7823811369        0.1697896569
 C          4.8043919180        2.0112170596       -0.4544605081
 C          5.7263056450        2.3294675708       -1.4387566331
 C          6.7176426488        1.4203847180       -1.7776901803
 C          6.7950952619        0.1919410564       -1.1395655343
 C          5.8751505073       -0.1333675350       -0.1547428614
 H          5.8919227262       -1.0781755211        0.3646317982
 H          7.5663683207       -0.5132227124       -1.4046785317
 H          7.4339420564        1.6713622947       -2.5440043292
 H          5.6687969331        3.2834362681       -1.9377585556
 H          4.0211081553        2.6894041720       -0.1593055829
 H          1.5818973356        1.0854845634        1.3080274514
 H          3.3871971614       -0.8752149082       -1.1472738074
 H          2.3880358098       -2.8372089176       -2.2689816544
 H          0.1090602544       -3.5585204003       -1.7178319758
 C         -1.6120283048       -2.4190115378        0.1307543125
 H         -1.5557300908       -2.8511118685        1.1415593662
 C         -2.2402219162       -3.4368802978       -0.7987926550
 C         -2.0034802619       -4.9014216846       -0.5890095050
 C         -3.3421366482       -4.3061090856       -0.2746807716
 H         -4.1749741939       -4.5319816806       -0.9234603743
 H         -3.6187546964       -4.1823832856        0.7626976094
 H         -1.9204155921       -5.5401856318       -1.4553622013
 H         -1.3732775062       -5.1933362415        0.2376356653
 H         -2.3315341801       -3.0699059490       -1.8144619148
 O         -2.1749823400       -0.5684623421       -1.9927436738
