  62
        -98.94341817
 C          2.2872862485        0.6303421162        0.0648197190
 C          3.1617843935        0.1692183467        1.0858716887
 C          4.0708173591       -0.9259553066        0.7284665051
 C          4.0227776809       -1.4362717770       -0.5151537363
 C          4.9233037475       -2.5175829909       -1.0361944574
 C          6.1819601362       -1.9273502777       -1.6873860672
 C          6.8897404524       -0.8806271334       -0.8269347747
 H          7.7789542097       -0.5583792510       -1.3731026386
 H          6.2421936299       -0.0068055484       -0.7241004476
 C          7.2974832417       -1.3754095826        0.5678684241
 H          7.2964034610       -2.4657756461        0.5892511185
 H          8.3195443718       -1.0483711943        0.7702801548
 C          6.4261447920       -0.8455498762        1.7082354642
 H          6.3478690180        0.2420470236        1.6344288471
 H          6.9268635711       -1.0739169255        2.6528350608
 C          5.0088279601       -1.4263672807        1.7906451676
 H          5.0570867439       -2.5170980361        1.7778792380
 H          4.5756785215       -1.1121209530        2.7446216370
 H          6.8706492084       -2.7444088660       -1.9099204662
 H          5.8956863171       -1.4576188928       -2.6313073787
 H          5.2009332286       -3.1770159097       -0.2161623900
 H          4.3740509845       -3.0926757902       -1.7835427597
 O          3.1653790298       -0.9828789481       -1.4620746352
 C          2.2834472237        0.0576409942       -1.2068391546
 O          1.5741583807        0.3504058644       -2.1918899774
 H         -0.3949532334        0.5357436092       -1.2113273377
 C         -0.8091923260        0.6888661741       -0.2256563277
 C         -0.0339875660        1.2995911615        0.7498712081
 C         -0.5810030947        1.4817560128        2.0146422255
 C         -1.8696985100        1.0606359125        2.2923595452
 C         -2.6364390819        0.4463743108        1.3186124112
 C         -2.0988116422        0.2581088754        0.0519839049
 N         -2.8579357554       -0.3879044430       -0.9394631988
 S         -4.4138681400        0.1663316216       -1.2385097540
 O         -4.7050151548       -0.2284569822       -2.5993220675
 O         -4.5431112902        1.5729874504       -0.9351588206
 C         -5.4271196030       -0.7912470670       -0.1304127544
 C         -5.3581894020       -2.1681668623       -0.2135457655
 C         -6.1451971521       -2.9299901551        0.6351543262
 C         -6.9853527608       -2.3056923646        1.5453472724
 C         -7.0460362865       -0.9222880073        1.6137767835
 C         -6.2604352170       -0.1543354133        0.7681809652
 H         -6.2706196859        0.9238125505        0.7887225219
 H         -7.7002849756       -0.4390284485        2.3214921176
 H         -7.5966150459       -2.9013520749        2.2048187474
 H         -6.1007033784       -4.0060374155        0.5845583995
 H         -4.6950832051       -2.6130033601       -0.9368829247
 H         -2.3529315161       -0.5187926561       -1.8044768817
 H         -3.6396445016        0.1136477421        1.5293411352
 H         -2.2811857900        1.2092658517        3.2789643800
 H          0.0158444413        1.9482283177        2.7847624947
 C          1.3638899469        1.7789526703        0.4361284343
 H          1.7866070484        2.1941955528        1.3609316037
 C          1.3262377824        2.8797786126       -0.6067678934
 C          0.9062976630        4.2574599460       -0.1945599502
 C          2.3369604045        3.9837210089       -0.5475409568
 H          2.7264309995        4.3752100857       -1.4753253585
 H          3.0623354787        3.9545573288        0.2525353243
 H          0.6624855915        4.4155965067        0.8450095939
 H          0.3076418943        4.8389179246       -0.8789203933
 H          1.0256445947        2.5349620943       -1.5877688481
 O          3.1824923821        0.6602831135        2.2456606573
