  62
        -98.93536001
 C         -1.6478225419       -0.2552013542        0.3425321306
 C         -2.7996110738       -0.9783691768       -0.0455337001
 C         -3.9495349742       -0.1833200450       -0.5212614460
 C         -3.8565482793        1.1572291616       -0.5825794142
 C         -4.8362626757        2.2069271108       -1.0647096314
 C         -6.3084870099        1.8648581643       -1.2791490635
 C         -7.0816863882        1.5338943780       -0.0030973133
 H         -7.1797088262        2.4463012648        0.5906263963
 H         -8.0864327732        1.2126328926       -0.2864437540
 C         -6.4532478551        0.4681438528        0.8912542430
 H         -5.4910330879        0.8235873980        1.2653302326
 H         -7.1051559702        0.3332667840        1.7587292946
 C         -6.2573832223       -0.8996142580        0.2402991965
 H         -7.2054080568       -1.2494372317       -0.1730942950
 H         -5.9579004992       -1.5977358344        1.0266661857
 C         -5.1878594361       -0.9610646118       -0.8639909394
 H         -5.5888770598       -0.6399829264       -1.8222734430
 H         -4.8756207012       -2.0037237655       -0.9725245761
 H         -6.4077809408        1.0617451428       -2.0034349006
 H         -6.7711170639        2.7501989119       -1.7239561265
 H         -4.7620128651        3.0321636032       -0.3493747528
 H         -4.4276115809        2.5815369810       -2.0097754103
 O         -2.7145430486        1.8114896221       -0.2195604180
 C         -1.6045409264        1.1388793733        0.2518081416
 O         -0.6520226832        1.8825134320        0.5604201395
 O         -2.8935907792       -2.2344200700       -0.0154143044
 C         -0.3813475389       -0.9046731111        0.8752333726
 C          0.4971509005       -1.4245609891       -0.2376437869
 C          0.0651348165       -2.4239176456       -1.1029312054
 C          0.9061041094       -2.9010173162       -2.0912336598
 C          2.1942569876       -2.4119300304       -2.2202167163
 C          2.6351514874       -1.4127400351       -1.3606328414
 C          1.7789564877       -0.9160814188       -0.3879837076
 H          2.1196408575       -0.1281836712        0.2661550546
 N          3.9297100311       -0.8895361091       -1.4732824815
 S          4.7793692012       -0.4042686638       -0.1172858394
 O          6.1663641337       -0.4511533367       -0.5284413503
 O          4.4333912975       -1.1932451475        1.0414698355
 C          4.3071725134        1.2950091567        0.1178516029
 C          3.8484774386        1.7176827638        1.3490519434
 C          3.5059225378        3.0499304378        1.5164267057
 C          3.6295675031        3.9317764798        0.4545007329
 C          4.0960052394        3.4925615504       -0.7753437026
 C          4.4400236272        2.1620150832       -0.9483906309
 H          4.8094753041        1.7843925299       -1.8872242784
 H          4.1897681261        4.1829110128       -1.5982272359
 H          3.3584726839        4.9672363063        0.5873334935
 H          3.1390421551        3.3923697365        2.4707460715
 H          3.7625172819        0.9980080437        2.1484692644
 H          4.5203887565       -1.3471348389       -2.1517963193
 H          2.8547400969       -2.7983941066       -2.9816789849
 H          0.5599441437       -3.6738042836       -2.7610680670
 H         -0.9339812000       -2.8165890259       -0.9947690834
 H          0.1717880994       -0.0996038534        1.3782529746
 C         -0.6399616004       -2.0063309836        1.8865700676
 C          0.4971479596       -2.4716746931        2.7441190214
 C         -0.6246514125       -1.6822028759        3.3483031037
 H         -1.3223139793       -2.1911548024        3.9965086545
 H         -0.4323634234       -0.6576669119        3.6326494998
 H          0.5682415681       -3.5232697238        2.9769290899
 H          1.4556086427       -1.9900065242        2.6129451406
 H         -1.3496879206       -2.7475696672        1.5444671311
