  62
        -98.94289784
 C          2.0258814785        1.0035683465        0.4347835289
 C          2.6594745476       -0.0540174606        1.1391409626
 C          4.0864836162       -0.2626713442        0.8654578201
 C          4.7123272003        0.5520955876       -0.0029453912
 C          6.1483768188        0.4247627851       -0.4192717289
 C          6.2882641406       -0.4618414967       -1.6646079393
 C          5.5419767668       -1.7921873990       -1.5627416297
 H          4.4674217691       -1.5976587849       -1.5275289391
 H          5.7375015150       -2.3463920206       -2.4833111282
 C          5.9394208944       -2.6520389041       -0.3547193669
 H          6.0713126645       -3.6838479521       -0.6871487881
 H          6.8977518281       -2.3145959199        0.0416647188
 C          4.9062691409       -2.6771960718        0.7734288834
 H          3.9227947166       -2.9251274136        0.3654676286
 H          5.1812576093       -3.4747363408        1.4690160124
 C          4.7769966520       -1.3843210397        1.5887076740
 H          4.1570338868       -1.6036995840        2.4631052745
 H          5.7627069751       -1.0691182479        1.9373415720
 H          5.8957496206        0.0851306436       -2.5248676351
 H          7.3494961136       -0.6503704672       -1.8366545059
 H          6.5296848720        1.4211426145       -0.6486279706
 H          6.7238514745        0.0065971144        0.4042987193
 O          4.0823674330        1.5671245828       -0.6417446228
 C          2.7288136152        1.8151336248       -0.4566202819
 O          2.3061872489        2.7710379384       -1.1347017390
 O          2.0567983613       -0.7871526553        1.9697353868
 C          0.5463664545        1.2129128579        0.7117844293
 C         -0.3094986767        0.5844675829       -0.3623548266
 C         -0.2822058597        1.0401178609       -1.6772916939
 C         -1.0733474845        0.4429747688       -2.6409617428
 C         -1.9199299879       -0.6018283853       -2.3119960099
 C         -1.9563616949       -1.0634235786       -1.0023872150
 C         -1.1470029545       -0.4737721564       -0.0398017587
 H         -1.1764867637       -0.8535810045        0.9705622092
 N         -2.8075135626       -2.1230750815       -0.6343421255
 S         -3.9068470523       -1.8788011089        0.6042521240
 O         -3.2121208162       -1.6496457904        1.8442001952
 O         -4.7824922204       -3.0278650004        0.5566524431
 C         -4.8010332463       -0.4150341034        0.1134217016
 C         -4.2442428305        0.8252111687        0.3557186020
 C         -4.9053499981        1.9551355233       -0.0991129487
 C         -6.1055032678        1.8272771522       -0.7814058023
 C         -6.6538919697        0.5747950336       -1.0128758105
 C         -5.9939924401       -0.5592490230       -0.5678475247
 H         -6.3840394164       -1.5522790744       -0.7226785840
 H         -7.5893228430        0.4788038145       -1.5401391086
 H         -6.6160077463        2.7098460238       -1.1331635533
 H         -4.4764298340        2.9279151485        0.0800204440
 H         -3.3111072313        0.8898245017        0.8908926585
 H         -3.2730602047       -2.5608420645       -1.4171389438
 H         -2.5414520856       -1.0628955301       -3.0647623976
 H         -1.0370465930        0.8006917527       -3.6587237210
 H          0.3784519079        1.8525617989       -1.9373513335
 H          0.3541942349        0.6678682431        1.6465327869
 C          0.1682459479        2.6658796232        0.9226135910
 C         -1.0309390213        2.9887630905        1.7606497606
 C          0.3459585582        3.2765699740        2.2785477423
 H          0.6731561142        4.3034095046        2.3416076298
 H          0.7377453506        2.6453043619        3.0632310080
 H         -1.6539312776        3.8209418263        1.4715867283
 H         -1.5704391073        2.1645191741        2.2044128115
 H          0.3720114693        3.2950864083        0.0664965843
