  62
        -98.93862384
 C         -2.1311754495       -0.9078303707        0.0090688412
 C         -2.9115512798       -0.2849560305        1.0097661608
 C         -3.6278965402        0.9392504891        0.6148575701
 C         -3.4831832402        1.4123021085       -0.6349887901
 C         -4.0779204205        2.6601015781       -1.2390229908
 C         -5.5502374506        2.9657339577       -0.9297547312
 C         -6.4468369002        1.7317612275       -0.7513708807
 H         -7.3290157802        1.8405673969       -1.3848772908
 H         -5.9187260699        0.8349558075       -1.0797788102
 C         -6.9247174104        1.5444642381        0.6905988694
 H         -7.8145377002        0.9105024378        0.6857494196
 H         -7.2187623907        2.5172333682        1.0906875088
 C         -5.9147663903        0.8984527489        1.6381837898
 H         -5.7859888899       -0.1559880012        1.3794452903
 H         -6.3313886104        0.9320484493        2.6476707797
 C         -4.5200067305        1.5449450293        1.6602762997
 H         -4.5838224808        2.6256524993        1.5588088391
 H         -4.0571891406        1.3119647900        2.6232817198
 H         -5.9251927707        3.5722310772       -1.7558795915
 H         -5.6137841409        3.5829633482       -0.0346375915
 H         -3.9466461003        2.5420820676       -2.3173938708
 H         -3.4628020108        3.5118352784       -0.9332815512
 O         -2.6965852498        0.7937263783       -1.5618344397
 C         -2.0093539195       -0.3754591713       -1.2735840491
 O         -1.3427983892       -0.8279412116       -2.2232108187
 O         -2.9944095598       -0.7226256699        2.1893120210
 C         -1.3742447891       -2.1790428303        0.3467160219
 C          0.1064514608       -1.9768369099        0.1359335820
 C          0.9193263812       -2.8971956000       -0.5122598474
 C          2.2691380111       -2.6419101697       -0.6838622674
 C          2.8382009307       -1.4741615592       -0.2110763379
 C          2.0356045303       -0.5485770092        0.4431313716
 C          0.6860328004       -0.8095973895        0.6183595315
 H          0.0623092801       -0.0835022295        1.1265303511
 N          2.6056135299        0.6394295813        0.9374238110
 S          3.5041945397        1.5785564310       -0.1291168393
 O          3.4132092592        2.9264979112        0.3902703800
 O          3.0830402900        1.3850273802       -1.4970529393
 C          5.1690846399        0.9860802317        0.0916270612
 C          5.7209726597        1.0533239025        1.3560328512
 C          7.0160149098        0.5985327930        1.5457624816
 C          7.7340034301        0.0892972427        0.4738052520
 C          7.1670553503        0.0320499219       -0.7901299281
 C          5.8714660202        0.4848722213       -0.9866392585
 H          5.3874413103        0.4567909907       -1.9500974685
 H          7.7267511505       -0.3629253684       -1.6226862678
 H          8.7419235502       -0.2640043069        0.6240827623
 H          7.4604715397        0.6424155836        2.5269445217
 H          5.1306070195        1.4608582427        2.1595427610
 H          1.9488407596        1.2188701713        1.4406372207
 H          3.8868860107       -1.2682798790       -0.3496506779
 H          2.8867596714       -3.3636332197       -1.1962186969
 H          0.4944722715       -3.8109103103       -0.8938417370
 H         -1.5474328492       -2.3459253398        1.4207207720
 C         -1.9426731987       -3.3508697209       -0.4260368376
 C         -1.8846872583       -4.7354902806        0.1447155831
 C         -3.1926623485       -4.0081524410        0.0749353526
 H         -3.9289299883       -4.3325455116       -0.6450886074
 H         -3.6179566388       -3.6279600207        0.9924190423
 H         -1.7249519180       -5.5640013108       -0.5286499965
 H         -1.4252590684       -4.8577542299        1.1137460332
 H         -1.8355359786       -3.2305779514       -1.4984615676
