  62
        -98.94355878
 C         -1.8782417603       -0.8613258513       -0.4880329075
 C         -3.2118453398       -1.2719547460       -0.2547693061
 C         -4.2405542133       -0.2356818985       -0.4164577547
 C         -3.8718535422        1.0053994009       -0.7836770093
 C         -4.8092534366        2.1670644709       -0.9388295358
 C         -4.9329506787        2.9592063935        0.3701315416
 C         -5.2105491433        2.0873364370        1.5947397476
 H         -4.3433355635        1.4499766385        1.7826690120
 H         -5.3094459363        2.7545851106        2.4537690220
 C         -6.4666371525        1.2123400353        1.4796433421
 H         -7.0262544434        1.2789218210        2.4150918697
 H         -7.1128756834        1.5940813991        0.6883873418
 C         -6.1868687635       -0.2715437979        1.2334390069
 H         -7.1184346489       -0.8227493952        1.3872621614
 H         -5.4673113428       -0.6357018926        1.9713758952
 C         -5.6683643626       -0.6312684898       -0.1648255021
 H         -6.3274100721       -0.2028520897       -0.9227348492
 H         -5.6987624716       -1.7207810084       -0.2595895775
 H         -5.7322733440        3.6936228904        0.2556667814
 H         -3.9978085233        3.4981895065        0.5390995025
 H         -4.4158021893        2.8252438786       -1.7152985486
 H         -5.7862957798        1.8007877315       -1.2478462823
 O         -2.5819562751        1.3587834950       -1.0125565584
 C         -1.5502260536        0.4429499738       -0.8584877545
 O         -0.4168416796        0.9047318939       -1.0795486587
 O         -3.5257270758       -2.4475407095        0.0763358950
 C         -0.7593771290       -1.8745848171       -0.3338638341
 C          0.2486178327       -1.4020807931        0.6843086263
 C         -0.2048061240       -0.8642305376        1.8861226948
 C          0.6832820152       -0.4089405282        2.8412711347
 C          2.0484184879       -0.4908442568        2.6273349618
 C          2.5130455873       -1.0348209936        1.4383249305
 C          1.6167804157       -1.4904440400        0.4774044421
 H          1.9975981443       -1.9095112371       -0.4411444927
 N          3.9039537867       -1.1346112970        1.2259962991
 S          4.8052389060        0.2714980467        1.1071829459
 O          6.1806051018       -0.1569400411        0.9928600262
 O          4.4907056720        1.1258718284        2.2228104797
 C          4.2914378971        1.0279566785       -0.4252184678
 C          3.0029804886        1.5130341038       -0.5290119864
 C          2.5796728432        2.0378484408       -1.7397942527
 C          3.4522352936        2.0795142511       -2.8164484131
 C          4.7469545985        1.5969727733       -2.6939572472
 C          5.1703345454        1.0567641822       -1.4905672809
 H          6.1629784421        0.6594021339       -1.3525312423
 H          5.4226175335        1.6331870841       -3.5335537110
 H          3.1178371060        2.4887181429       -3.7570286504
 H          1.5606893011        2.3783419210       -1.8300443308
 H          2.3366658577        1.4699912615        0.3173728653
 H          4.1493636818       -1.7478261046        0.4608200925
 H          2.7548347595       -0.1248782517        3.3538813906
 H          0.3116227813        0.0112094803        3.7639517008
 H         -1.2706524868       -0.8007427026        2.0595215306
 H         -1.2405949718       -2.7832729638        0.0583856245
 C         -0.1537265505       -2.1913982507       -1.6858094402
 C          0.4267094096       -3.5462288656       -1.9592936523
 C         -0.8716027512       -3.1455156027       -2.5909671897
 H         -0.8899550806       -2.9378119665       -3.6502400663
 H         -1.7827576867       -3.5902259771       -2.2181824277
 H          1.3001472687       -3.6167779559       -2.5903118386
 H          0.3975094110       -4.2740057271       -1.1623618454
 H          0.3179567607       -1.3278524312       -2.1421356440
