  62
        -98.94504594
 C         -1.1267136471       -1.8567937379       -0.6778965645
 C         -0.4415569212       -2.3647453067        0.4555858478
 C          0.9914843747       -2.6560033263        0.2581050790
 C          1.5603757205       -2.4382997958       -0.9398576698
 C          3.0110935726       -2.6484109241       -1.2611778210
 C          3.8348409459       -1.3750837271       -1.0273591652
 C          3.6236157028       -0.7377188814        0.3460609129
 H          4.3057005567        0.1128254536        0.4193443355
 H          2.6113054245       -0.3337759564        0.4130782917
 C          3.8531629666       -1.6818945292        1.5337862902
 H          4.4411511341       -2.5458483871        1.2197421784
 H          4.4317905562       -1.1517176336        2.2932087425
 C          2.5647659569       -2.1557598227        2.2101608958
 H          1.9240161759       -1.2929298492        2.4113559349
 H          2.8286933224       -2.5995106604        3.1745010985
 C          1.7491358476       -3.1999526150        1.4360987699
 H          2.4012658572       -4.0208631560        1.1274054500
 H          0.9928033350       -3.5997053834        2.1184266961
 H          4.8903565864       -1.6239502301       -1.1526031165
 H          3.5648622020       -0.6389809954       -1.7880654812
 H          3.3979009176       -3.4602070163       -0.6481063024
 H          3.0892119484       -2.9307020671       -2.3126846829
 O          0.8678930675       -1.9677435478       -2.0089826246
 C         -0.4760874930       -1.6516603929       -1.8979725454
 O         -0.9816453154       -1.2061160744       -2.9476092980
 H         -1.2382088482        0.0778382063        1.1428939834
 C         -1.8679951783        0.6803446146        0.5057020204
 C         -2.6548667313        0.0738656539       -0.4637850954
 C         -3.4715284930        0.8716438149       -1.2562323050
 C         -3.4937479033        2.2442662518       -1.0837514299
 C         -2.6805248404        2.8477449816       -0.1415179046
 C         -1.8554661675        2.0598843545        0.6533931216
 N         -0.9993874461        2.6438816198        1.6046005646
 S          0.6160964147        2.2031539822        1.6312527371
 O          0.7523807641        0.8367049695        2.0578071823
 O          1.2460218467        3.2027705231        2.4655798083
 C          1.1730780723        2.3922601370       -0.0516734030
 C          0.9483294853        1.3711453369       -0.9523480303
 C          1.3313251514        1.5400226791       -2.2731775164
 C          1.9373463319        2.7226582845       -2.6680732714
 C          2.1617407632        3.7389305293       -1.7509660118
 C          1.7713544963        3.5778560548       -0.4314441597
 H          1.9297478617        4.3391611509        0.3151870477
 H          2.6362949973        4.6555374012       -2.0622731206
 H          2.2355873267        2.8494332094       -3.6968203246
 H          1.1397961244        0.7450512536       -2.9779699463
 H          0.4772180163        0.4592501503       -0.6202620914
 H         -1.0808533222        3.6488946667        1.6684740412
 H         -2.6789952107        3.9204363807       -0.0217520168
 H         -4.1350316517        2.8528513482       -1.7025916394
 H         -4.0770266726        0.4106400255       -2.0223843322
 C         -2.5844698648       -1.4197293298       -0.6685409548
 H         -2.9605065476       -1.6254910356       -1.6843214318
 C         -3.4634512084       -2.1936199715        0.3010770004
 C         -3.9584462622       -1.6238367479        1.5926603464
 C         -4.9103361659       -1.8274015794        0.4545199476
 H         -5.6384757034       -2.6211406918        0.5241801977
 H         -5.2608190687       -0.9480151255       -0.0642960921
 H         -4.0075777964       -2.2859048204        2.4435944390
 H         -3.6712551749       -0.6154642570        1.8485397647
 H         -3.2263542231       -3.2520792435        0.3047877951
 O         -0.9746456591       -2.5852984514        1.5720138687
