  62
        -98.93925482
 C         -2.6812537353       -1.2630819369       -0.3079612630
 C         -2.5301163227       -0.0599099463       -1.0396657848
 C         -3.7048255145        0.8213562887       -1.0624752164
 C         -4.8372654188        0.4485146045       -0.4400443805
 C         -6.1186883388        1.2349817512       -0.3857647234
 C         -6.1495699974        2.2937235289        0.7252033199
 C         -5.2696131993        3.5203664194        0.4805308106
 H         -5.4930530337        3.9362931715       -0.5023653567
 H         -5.5517246946        4.2694332136        1.2231114455
 C         -3.7621696870        3.2538047398        0.5982375412
 H         -3.2983727612        4.0409614661        1.1970824684
 H         -3.5969207830        2.3127733451        1.1286533776
 C         -3.0199444985        3.2048941838       -0.7374571734
 H         -3.0598938627        4.1865119426       -1.2147913777
 H         -1.9716112616        2.9686851432       -0.5365298851
 C         -3.5609747995        2.1596393662       -1.7217390679
 H         -4.5146874297        2.4876598962       -2.1341009883
 H         -2.8422332309        2.0531620574       -2.5376982479
 H         -7.1840731243        2.6298134216        0.8264691520
 H         -5.8603611758        1.8203537854        1.6664700553
 H         -6.2990660301        1.7112156098       -1.3497211729
 H         -6.9181435638        0.5152180038       -0.1974879067
 O         -4.9525581501       -0.7336974824        0.2223102324
 C         -3.8744761379       -1.5951172252        0.3360768856
 O         -4.1028181225       -2.6144438965        1.0189374646
 O         -1.4790062719        0.2688401626       -1.6478411373
 C         -1.5130907408       -2.2215506814       -0.1402032333
 C         -0.4589448694       -1.5189219164        0.6813293803
 C         -0.6821563031       -1.3506140172        2.0455793299
 C          0.2278479580       -0.6694149038        2.8308157518
 C          1.3733322194       -0.1293389998        2.2716374097
 C          1.6034380738       -0.2882009931        0.9121291601
 C          0.6971783620       -0.9937488743        0.1281084813
 H          0.8833510411       -1.1033887114       -0.9284751403
 N          2.7434582660        0.2890782816        0.3226305612
 S          4.2250656656        0.1057033688        1.1081531905
 O          4.4567080886       -1.2877158502        1.4210195944
 O          4.2699130153        1.0147432858        2.2259672927
 C          5.3444349676        0.6568027157       -0.1630791729
 C          6.0329608148       -0.2732884475       -0.9179105642
 C          6.8809977914        0.1726739340       -1.9196388065
 C          7.0221188474        1.5328052140       -2.1497639778
 C          6.3233973937        2.4542847224       -1.3836512654
 C          5.4751069049        2.0154513425       -0.3798176222
 H          4.9184678773        2.6942211219        0.2449569809
 H          6.4371793538        3.5108802019       -1.5650437184
 H          7.6825955783        1.8772291085       -2.9298069943
 H          7.4272394977       -0.5407249032       -2.5154800873
 H          5.8978735704       -1.3203543175       -0.6987577047
 H          2.8231895546        0.0459066072       -0.6555077090
 H          2.0895028865        0.4077583870        2.8720601617
 H          0.0439789767       -0.5511574029        3.8884550550
 H         -1.5858050180       -1.7580455101        2.4791533438
 H         -1.8957736119       -3.0654801187        0.4496714883
 C         -1.0193528982       -2.7425923147       -1.4727815943
 C         -0.1370233304       -3.9532698891       -1.5074389326
 C         -1.5530347780       -4.0431152995       -1.9897090697
 H         -1.7319360100       -4.1411990232       -3.0499225903
 H         -2.2714651512       -4.5670330919       -1.3761647617
 H          0.6572166420       -3.9944047857       -2.2372152519
 H          0.1089532403       -4.4170081803       -0.5638777617
 H         -0.8397081016       -1.9587322685       -2.1980216378
