  62
        -98.93918579
 C         -1.4420954772       -1.6985383466       -0.2559814220
 C         -2.6389962167       -1.4201190519        0.4521895322
 C         -3.4434459916       -0.2987589451       -0.0484739304
 C         -3.0282442663        0.3844787976       -1.1296708172
 C         -3.7258937103        1.5512337029       -1.7758936334
 C         -3.8065262576        2.8322546239       -0.9221969519
 C         -5.1174173868        2.9859784645       -0.1409662021
 H         -5.4280626104        4.0321060438       -0.1783799375
 H         -5.8962900519        2.4115101781       -0.6440184057
 C         -5.0650268557        2.5891596345        1.3381079033
 H         -4.5938783573        3.3938153742        1.9070686534
 H         -6.0932735950        2.4952953155        1.6941865784
 C         -4.3101587290        1.2994471592        1.6624840464
 H         -4.5224744815        1.0336284823        2.6999381835
 H         -3.2335840754        1.4775954747        1.6054186988
 C         -4.6492023671        0.1051003491        0.7488111904
 H         -5.4824767645        0.3470010130        0.0909089470
 H         -4.9280341424       -0.7588796656        1.3552290002
 H         -3.7153093928        3.6776355310       -1.6058068976
 H         -2.9545334073        2.8686745086       -0.2437995133
 H         -3.1655248451        1.7620779119       -2.6890819368
 H         -4.7322080873        1.2437599138       -2.0679829944
 O         -1.8900482393        0.0641191661       -1.8012205846
 C         -1.0588139164       -0.9619952420       -1.3764256521
 O         -0.0415123505       -1.1050075723       -2.0818271421
 O         -3.0148014875       -2.0781262550        1.4576235454
 C         -0.5240135128       -2.7779894772        0.2968458321
 C          0.6747382228       -2.0557273662        0.8590848797
 C          0.6059809408       -1.5024252904        2.1351708473
 C          1.6357219917       -0.7197220972        2.6231813411
 C          2.7428380868       -0.4462307958        1.8380183087
 C          2.8134235572       -0.9859921048        0.5610050306
 C          1.8008404460       -1.8097527061        0.0891563766
 H          1.8705107881       -2.2146765672       -0.9075506202
 N          3.9002667394       -0.6578978374       -0.2705589507
 S          4.3032116764        0.9648676822       -0.3512058142
 O          4.8422617587        1.1643949786       -1.6787781618
 O          5.1990865907        1.2846691878        0.7341362303
 C          2.7853518085        1.8880259391       -0.1498788914
 C          2.7447095152        2.9051217355        0.7831388753
 C          1.5801468022        3.6411944352        0.9280139672
 C          0.4772703200        3.3482308820        0.1408899506
 C          0.5333761932        2.3242588971       -0.7912921563
 C          1.6963911397        1.5858132676       -0.9430981254
 H          1.7394706458        0.7787329149       -1.6578998359
 H         -0.3227643327        2.0826953746       -1.4017409695
 H         -0.4303532853        3.9210551798        0.2519775075
 H          1.5349416454        4.4378131193        1.6530486042
 H          3.6235827974        3.0948867391        1.3777955882
 H          3.8214413065       -1.0485338205       -1.1988246397
 H          3.5452205374        0.1823405971        2.1894420773
 H          1.5709910929       -0.3038855053        3.6170049816
 H         -0.2775536876       -1.6781819964        2.7325002306
 H         -1.0760978491       -3.2375415024        1.1267833699
 C         -0.1899687700       -3.8471570165       -0.7202151687
 C          0.4409471418       -5.1249948825       -0.2561228179
 C         -0.9804932785       -5.1197915415       -0.7299593527
 H         -1.2097685059       -5.5758548739       -1.6814207091
 H         -1.7649112597       -5.2269291529        0.0047575048
 H          1.1900964500       -5.5877052554       -0.8803319353
 H          0.6226631110       -5.2339309720        0.8023745673
 H          0.1148131169       -3.4518857802       -1.6812502781
