  62
        -98.93926252
 C         -2.6339219004       -0.9345357585        0.4632559606
 C         -2.6525696799        0.2450780720        1.2485183000
 C         -3.5767086594        1.2961128621        0.8121309293
 C         -4.3322311394        1.1048120719       -0.2848192406
 C         -5.3489412490        2.0657740320       -0.8389306312
 C         -4.7553589884        3.1506710113       -1.7477369418
 C         -3.9546436880        4.2351855013       -1.0260848723
 H         -3.7830060276        5.0384606108       -1.7452855627
 H         -4.5542697079        4.6478746520       -0.2141460925
 C         -2.5995920583        3.7631767610       -0.4804825319
 H         -2.3200275386        2.8229613706       -0.9620849114
 H         -1.8294336579        4.4940283005       -0.7371143023
 C         -2.5578243784        3.5745213918        1.0360645182
 H         -2.7057281780        4.5377831821        1.5292184876
 H         -1.5654902186        3.2055402715        1.3074713184
 C         -3.5961726089        2.5839540726        1.5792388686
 H         -3.3433202191        2.3566141830        2.6177156088
 H         -4.5908171887        3.0282183530        1.5507114083
 H         -5.5872424882        3.6292139514       -2.2696956421
 H         -4.1242656386        2.6699735306       -2.4989123715
 H         -5.8942957788        2.5343164527       -0.0191617615
 H         -6.0497706692        1.4697877020       -1.4274236409
 O         -4.2676911499       -0.0313056286       -1.0266816100
 C         -3.4044841004       -1.0664417188       -0.6926240894
 O         -3.4342873908       -2.0233106892       -1.4884472889
 O         -1.9337997999        0.4081355322        2.2716193699
 C         -1.6935298709       -2.0532256987        0.8816412513
 C         -0.5167885909       -2.0729344397       -0.0635288787
 C         -0.3806217412       -2.9925775003       -1.0947135882
 C          0.7092090989       -2.9283270513       -1.9462551681
 C          1.6810373693       -1.9577716716       -1.7869123586
 C          1.5570417496       -1.0360059110       -0.7545711091
 C          0.4648500395       -1.1019399501        0.0980060309
 H          0.3589272198       -0.3814845696        0.8993393105
 N          2.5373048801       -0.0385534413       -0.5887101696
 S          4.1482935298       -0.5426595021       -0.6968765392
 O          4.5190732499       -0.5810276930       -2.0895577291
 O          4.3320237092       -1.7739205618        0.0383066315
 C          4.9963315704        0.7977368379        0.1146777102
 C          5.2791638509        1.9421819574       -0.6065302404
 C          5.9258063814        2.9903707975        0.0286738890
 C          6.2762142112        2.8776554680        1.3660294091
 C          5.9858849507        1.7225716886        2.0764155897
 C          5.3382767402        0.6707626685        1.4476593503
 H          5.1018262998       -0.2493877811        1.9578212707
 H          6.2619372506        1.6367989590        3.1151118198
 H          6.7816901716        3.6939160281        1.8574161487
 H          6.1557264218        3.8892261871       -0.5203238514
 H          4.9972412310        1.9807345870       -1.6457749305
 H          2.3829459202        0.5046389992        0.2500962401
 H          2.5372689994       -1.9059664123       -2.4402465185
 H          0.8035809286       -3.6463341917       -2.7472696177
 H         -1.1351367015       -3.7475813501       -1.2409346478
 H         -1.3198967409       -1.7569941583        1.8719259011
 C         -2.3997986615       -3.3850416783        1.0115069519
 C         -1.7277097721       -4.4977811982        1.7571266326
 C         -2.9180954718       -3.8088888273        2.3517790921
 H         -3.8553587121       -4.3429408969        2.3951736223
 H         -2.7583834216       -3.1399174570        3.1848024418
 H         -1.8451614625       -5.5071307583        1.3937290731
 H         -0.7567143420       -4.2951855684        2.1836588625
 H         -2.9981282916       -3.6414449585        0.1463034420
