  62
        -98.94850425
 C         -1.2398469468       -1.5140755698        0.5009686540
 C         -2.1800319492       -1.2060639917       -0.5114641146
 C         -3.2354102141       -0.2550045712       -0.1358922815
 C         -3.2538904780        0.2562656891        1.1083020340
 C         -4.2414610562        1.2717415300        1.6041174984
 C         -3.7166803598        2.7009798124        1.4098794016
 C         -3.1832089176        2.9840767586        0.0050309477
 H         -2.8865680329        4.0354699676       -0.0208306730
 H         -2.2710749935        2.4032649823       -0.1569563906
 C         -4.1845422019        2.7081227496       -1.1254700149
 H         -5.1979267690        2.6804432926       -0.7223953900
 H         -4.1400362767        3.5359025430       -1.8364943272
 C         -3.9180939836        1.4272661696       -1.9186128610
 H         -2.8696332425        1.4029656117       -2.2284358005
 H         -4.5281127379        1.4566854535       -2.8256071074
 C         -4.2368315153        0.1139272036       -1.1930562930
 H         -5.2451770878        0.1572206833       -0.7765943360
 H         -4.2021944600       -0.6914307384       -1.9326257320
 H         -4.5237749000        3.3989360184        1.6418980902
 H         -2.9025065205        2.8730206956        2.1180364665
 H         -5.1830019971        1.1443087642        1.0734057624
 H         -4.4080397624        1.0984683611        2.6688956638
 O         -2.3378895913       -0.0683795878        2.0559023493
 C         -1.2894436105       -0.9256857498        1.7636464446
 O         -0.4789861946       -1.0866362413        2.7002731359
 H          0.4146162254        0.1611644322       -0.2030211151
 C          0.9433272149       -0.4455339820       -0.9211973063
 C          0.7862668957       -1.8235809216       -0.8992686941
 C          1.4536644459       -2.5786501515       -1.8559612827
 C          2.2409323856       -1.9574894799       -2.8105027716
 C          2.4000221696       -0.5831257324       -2.8216643270
 C          1.7408003981        0.1797899626       -1.8648942929
 N          1.8630048888        1.5770999427       -1.8257294911
 S          1.8841466793        2.3549683616       -0.3444645688
 O          0.5627529719        2.3895324290        0.2293450450
 O          2.4801669607        3.6428646256       -0.6307536570
 C          3.0021207808        1.3874915671        0.6544039092
 C          4.3434595774        1.4420066296        0.3242443755
 C          5.2451846976        0.6688594617        1.0353871347
 C          4.7923682847       -0.1498745681        2.0594539370
 C          3.4456360863       -0.1893898785        2.3826311597
 C          2.5379732842        0.5855403314        1.6762887079
 H          1.4857580377        0.5631648868        1.9148823292
 H          3.0824313120       -0.8216682141        3.1773829346
 H          5.4915869676       -0.7580567339        2.6112191105
 H          6.2941039388        0.7034960750        0.7892367614
 H          4.6565488340        2.1003687706       -0.4697303148
 H          2.5344242762        1.9684986395       -2.4694663768
 H          3.0160671675       -0.1032735147       -3.5663268064
 H          2.7453847247       -2.5544536155       -3.5549342015
 H          1.3496945811       -3.6513406146       -1.8595443439
 C         -0.0687150312       -2.4269823093        0.1908246733
 H          0.5393028214       -2.4633987721        1.1078394772
 C         -0.5484084474       -3.8275577872       -0.1306841567
 C          0.2848312609       -5.0172123843        0.2381167877
 C         -0.9732842213       -4.7199990667        0.9954605877
 H         -1.8301465403       -5.3606834685        0.8513994243
 H         -0.8882476186       -4.3251637696        1.9977887126
 H          0.2902193555       -5.8681853154       -0.4262748242
 H          1.2263715657       -4.8359882907        0.7341815555
 H         -1.1260036123       -3.8676035844       -1.0467012559
 O         -2.1386743202       -1.6939660818       -1.6712741170
