  62
        -98.94229306
 C         -1.9721659394       -1.3560503605       -0.1091200689
 C         -3.0714369991       -1.2114113106        0.7779048415
 C         -4.2557568593       -0.5299919006        0.2460268320
 C         -4.2621814597       -0.1080671404       -1.0309856279
 C         -5.4026376000        0.5762278297       -1.7342795174
 C         -5.4645619499        2.0908908997       -1.4943762871
 C         -5.9237358495        2.5093946094       -0.0970523669
 H         -6.1304915795        3.5808058994       -0.1354880767
 H         -6.8607706994        2.0056498694        0.1422278734
 C         -4.8967059391        2.2450813493        1.0130657627
 H         -4.8164337988        3.1271560792        1.6524851728
 H         -3.9114839492        2.0842359494        0.5686191623
 C         -5.2308607987        1.0589861491        1.9181083326
 H         -4.4193977084        0.9419012191        2.6410250123
 H         -6.1482643785        1.2687936890        2.4724926730
 C         -5.4016224189       -0.2737483907        1.1772464825
 H         -5.4153788287       -1.0779712309        1.9168753724
 H         -6.3451662291       -0.2829723607        0.6318668228
 H         -4.4794808900        2.5179698197       -1.6970015174
 H         -6.1633219302        2.5080429998       -2.2232394368
 H         -6.3458051499        0.1201242696       -1.4321905071
 H         -5.2584043904        0.4026296699       -2.8029184675
 O         -3.1992054600       -0.2806125602       -1.8575869283
 C         -2.0207540499       -0.8759224303       -1.4184054988
 O         -1.1298714002       -0.9041181201       -2.2885767191
 O         -3.0634183386       -1.6445997908        1.9608413514
 C         -0.7438492892       -2.0561725505        0.4456394005
 C          0.2617446310       -1.0692709706        0.9814987403
 C          0.8279951215       -1.2360741708        2.2397664201
 C          1.7601099416       -0.3315653808        2.7192583599
 C          2.1472723413        0.7540516293        1.9548220000
 C          1.5882498309        0.9284248095        0.6948519602
 C          0.6563006607        0.0191981495        0.2154772304
 H          0.2323634204        0.1558947897       -0.7685467395
 N          1.9800729506        2.0228211396       -0.0971386198
 S          3.6248218705        2.2969886697       -0.2595791703
 O          4.1105285509        2.9952225595        0.9047071896
 O          3.7761584600        2.9882516499       -1.5199805303
 C          4.3544914505        0.6713863897       -0.3379740908
 C          5.1718412809        0.2303428596        0.6827274188
 C          5.6841418509       -1.0558091104        0.6221190384
 C          5.3694821505       -1.8748096003       -0.4509419516
 C          4.5511219701       -1.4152621501       -1.4715180312
 C          4.0349610201       -0.1307475001       -1.4157409709
 H          3.3953295198        0.2564177800       -2.1936001106
 H          4.3049037998       -2.0538804400       -2.3045008913
 H          5.7620204905       -2.8782525402       -0.4946590819
 H          6.3221156012       -1.4154529505        1.4131316281
 H          5.3906609011        0.8999845294        1.4981966288
 H          1.5203681402        2.0503517397       -0.9957495696
 H          2.8644483214        1.4737189393        2.3146079598
 H          2.1880362420       -0.4710761310        3.6999741697
 H          0.5219467917       -2.0737047909        2.8489621401
 H         -1.1215994589       -2.6364502607        1.3022407906
 C         -0.1287994695       -3.0474415704       -0.5336945598
 C          1.1662640802       -2.8173899202       -1.2466526003
 C          1.0904113907       -3.8325019404       -0.1486634704
 H          1.1313399006       -4.8802004604       -0.4043794806
 H          1.5639121710       -3.5844744805        0.7890826095
 H          1.2370668699       -3.1546579301       -2.2693449303
 H          1.6993098403       -1.8997677402       -1.0543459403
 H         -0.8929010397       -3.5790926303       -1.0925411796
