  62
        -98.93760064
 C          1.1388245886        1.5941909764        0.1678497291
 C          2.2350211006        1.1793290565        0.9688741600
 C          3.2185729880        0.3087600040        0.3172853901
 C          3.0054233381       -0.1076094790       -0.9441208146
 C          3.9586736715       -0.9236436382       -1.7773331090
 C          3.9337501638       -2.4377199011       -1.5251688991
 C          4.5060585886       -2.8934536936       -0.1826604295
 H          4.6061891618       -3.9796262104       -0.2305855782
 H          5.5083952554       -2.4825734446       -0.0580722280
 C          3.6411247865       -2.5260894990        1.0313481820
 H          2.6404862551       -2.2452024852        0.6978572363
 H          3.5335403270       -3.3962724223        1.6821675914
 C          4.2055478676       -1.3887206287        1.8806421011
 H          3.5019182444       -1.1791622028        2.6900933055
 H          5.1532897614       -1.6953213875        2.3288430744
 C          4.4332745068       -0.0883641485        1.1008853230
 H          5.2929531500       -0.1930147899        0.4385496272
 H          4.6396325751        0.7103392978        1.8178521062
 H          2.9079358003       -2.7965464319       -1.6218375943
 H          4.5211082859       -2.9024687451       -2.3208113941
 H          4.9724877057       -0.5510194096       -1.6215940680
 H          3.6845518879       -0.7470790783       -2.8201528348
 O          1.8839581674        0.2234544285       -1.6396821017
 C          0.9327257056        1.0958844442       -1.1172416546
 O         -0.0201705741        1.3237600345       -1.8863891115
 O          2.3956706890        1.5448756247        2.1626204426
 C          0.2100645728        2.6336881400        0.7618043118
 C         -1.2447776701        2.3754388045        0.4579680297
 C         -2.0621737057        3.3170156913       -0.1550566608
 C         -3.4147793559        3.0803454963       -0.3258337696
 C         -3.9814095784        1.9007000204        0.1153147800
 C         -3.1715953546        0.9400610275        0.7061602853
 C         -1.8166253868        1.1742381071        0.8695603817
 H         -1.1978612555        0.4171378950        1.3318621121
 N         -3.7206387787       -0.2995261848        1.1440428276
 S         -3.8027012541       -1.4751228252       -0.0553986164
 O         -4.0266324141       -0.8818517940       -1.3553260634
 O         -4.8146456584       -2.4082840081        0.3945076971
 C         -2.2145921317       -2.2669243220       -0.0208653658
 C         -2.0340519584       -3.3670822153        0.7947884453
 C         -0.8122841484       -4.0193517060        0.7797582853
 C          0.2010596786       -3.5661514973       -0.0515111290
 C          0.0052002562       -2.4532397076       -0.8545851248
 C         -1.2115443703       -1.7908983345       -0.8400528910
 H         -1.3876932567       -0.9197049291       -1.4527742980
 H          0.7872492925       -2.0852378046       -1.5001371009
 H          1.1467384716       -4.0852545922       -0.0755063145
 H         -0.6540453548       -4.8818033406        1.4068885016
 H         -2.8574509838       -3.6964802541        1.4069573945
 H         -4.6499015882       -0.1948936056        1.5305282993
 H         -5.0366336656        1.7072973629       -0.0101692937
 H         -4.0322509837        3.8247803019       -0.8054852358
 H         -1.6404549681        4.2409378135       -0.5140558310
 H          0.3393482608        2.5226297493        1.8519969333
 C          0.6336434244        4.0593168842        0.4237753027
 C          2.0521726769        4.4010788707        0.0821728327
 C          0.9920728660        4.4668853176       -0.9735321119
 H          0.6778441034        5.4382087940       -1.3266585022
 H          0.9749983466        3.7003961239       -1.7335020675
 H          2.4569595622        5.3265130503        0.4635634357
 H          2.7727563829        3.5979549925        0.0366949280
 H          0.1032454173        4.7918596696        1.0242425867
