  62
        -98.94056446
 C         -1.7470293354       -0.8031073728        0.1820921846
 C         -3.0509125985       -1.0292006572        0.6787193002
 C         -3.9952689499        0.0983328759        0.5899603686
 C         -3.5842862451        1.2631843437        0.0543034048
 C         -4.3029851072        2.5838809038       -0.1279060643
 C         -5.8209352568        2.6735375528        0.0057998579
 C         -6.6039456865        1.9407414411       -1.0829584601
 H         -6.4601032710        2.4679776334       -2.0294949756
 H         -7.6658736743        1.9915283116       -0.8326204932
 C         -6.2158106816        0.4811356447       -1.3060644648
 H         -5.1837319673        0.4249815409       -1.6584821842
 H         -6.8491725457        0.0852370273       -2.1046861033
 C         -6.3758231537       -0.4314886411       -0.0916765535
 H         -6.2219753570       -1.4594290458       -0.4310645679
 H         -7.3946169661       -0.3562077613        0.2933356935
 C         -5.3934586247       -0.1747651626        1.0644524020
 H         -5.3396573567       -1.0847614757        1.6692148196
 H         -5.7436977935        0.6261433200        1.7111633100
 H         -6.0764660180        3.7344977101       -0.0627445819
 H         -6.1336533069        2.3382743541        0.9902315675
 H         -4.0096820289        2.9465586855       -1.1181809729
 H         -3.8516128834        3.2700105282        0.5972507405
 O         -2.3079479267        1.4368879540       -0.3997311993
 C         -1.3665915587        0.4221306087       -0.3593349331
 O         -0.2548130252        0.7356379252       -0.8238267170
 O         -3.4111853494       -2.1245312605        1.1878638024
 C         -0.7323791621       -1.9306394949        0.2263755040
 C          0.4922157481       -1.4976594726        0.9924531358
 C          0.3334087472       -1.0109393772        2.2885862277
 C          1.4239680805       -0.6030921167        3.0306903938
 C          2.6986213740       -0.6632108991        2.4930521080
 C          2.8691669281       -1.1509059107        1.2042249167
 C          1.7713477177       -1.5747611999        0.4656594815
 H          1.9378958960       -1.9424035341       -0.5324043030
 N          4.1541678282       -1.2488855305        0.6357854755
 S          4.4806078709       -0.4597628412       -0.8053252503
 O          3.6142742621       -0.9520160228       -1.8434948609
 O          5.8998091879       -0.6522095300       -1.0129227703
 C          4.1638391508        1.2604063692       -0.4540237809
 C          5.2369369173        2.0724378743       -0.1382650272
 C          5.0033373290        3.3939046749        0.2038561332
 C          3.7035586280        3.8771506164        0.2350784867
 C          2.6390658915        3.0476059312       -0.0803359600
 C          2.8639049410        1.7240725817       -0.4289345599
 H          2.0416935595        1.0719511625       -0.6789267637
 H          1.6238688449        3.4114557920       -0.0594535336
 H          3.5181324440        4.9049453275        0.5052174121
 H          5.8310419735        4.0406386088        0.4468158921
 H          6.2296130531        1.6536977949       -0.1792514681
 H          4.9006255318       -1.0584948160        1.2903404968
 H          3.5531481452       -0.3400268243        3.0681853129
 H          1.2826524354       -0.2292658518        4.0334930765
 H         -0.6635594916       -0.9572578406        2.7047263969
 H         -1.2200599601       -2.7412276843        0.7882373042
 C         -0.4319789591       -2.4249221606       -1.1728402106
 C          0.0192358606       -3.8372467869       -1.3902484097
 C         -1.3570594144       -3.4170737617       -1.8084721416
 H         -1.5709833342       -3.3212729044       -2.8625142188
 H         -2.1972781152       -3.7579484938       -1.2211423414
 H          0.7554966872       -4.0283888848       -2.1566280355
 H          0.1139669587       -4.4704730680       -0.5210208775
 H         -0.0129304805       -1.6544756829       -1.8117287544
