  62
        -98.94306963
 C         -1.8633076512       -0.7812792195        0.7313523537
 C         -2.8315571602       -1.1950824641       -0.2164316692
 C         -4.1765296203       -0.6206518979       -0.0524752396
 C         -4.4178915902        0.2324793538        0.9582239967
 C         -5.7232105028        0.9319743378        1.2009701436
 C         -5.7664127535        2.2910939127        0.4885857767
 C         -5.3490090766        2.2323961149       -0.9809833635
 H         -4.2906974617        1.9671866727       -1.0403416220
 H         -5.4495815156        3.2411697161       -1.3874950111
 C         -6.1662620766        1.2528028174       -1.8348444558
 H         -6.4290095844        1.7433253578       -2.7744712654
 H         -7.0991632486        1.0075791492       -1.3259281176
 C         -5.4310017003       -0.0389825046       -2.1965271706
 H         -4.4530199713        0.2029679459       -2.6201042304
 H         -6.0066201001       -0.5513897999       -2.9719030253
 C         -5.2254848600       -1.0332643019       -1.0468750169
 H         -4.8734570575       -1.9736279794       -1.4805347843
 H         -6.1777588742       -1.2203320041       -0.5468322442
 H         -5.0921763898        2.9759334298        1.0084389500
 H         -6.7799461000        2.6889798704        0.5656616042
 H         -5.8333123374        1.0911081622        2.2750598246
 H         -6.5381731632        0.3009467389        0.8517403684
 O         -3.4692649988        0.5936592381        1.8600189201
 C         -2.1775180860        0.1066650947        1.7647286747
 O         -1.4102903036        0.5234537770        2.6569011912
 O         -2.6108594925       -2.0025575297       -1.1559388770
 C         -0.4188801216       -1.2609771176        0.6969718284
 C          0.3477465066       -0.5072868633       -0.3638977486
 C          0.1784705703       -0.7688409789       -1.7201119467
 C          0.8715566771       -0.0359519747       -2.6655759797
 C          1.7575948094        0.9553566058       -2.2815665575
 C          1.9319903556        1.2272307052       -0.9302678119
 C          1.2260568534        0.4981985265        0.0171545717
 H          1.3547769828        0.7361600381        1.0629163284
 N          2.8222620931        2.2328129003       -0.5092895386
 S          3.9722308045        1.8492084910        0.6450548771
 O          3.3521010094        1.6798887608        1.9335130888
 O          4.9600963962        2.9004752979        0.5410122586
 C          4.6585982574        0.3059656754        0.0733274935
 C          5.6209819860        0.3428527327       -0.9169858056
 C          6.1052976308       -0.8508742724       -1.4260815715
 C          5.6127896465       -2.0552090848       -0.9464268298
 C          4.6471594605       -2.0755850439        0.0479299294
 C          4.1630156984       -0.8843220381        0.5650485615
 H          3.4165362640       -0.8559268459        1.3422656537
 H          4.2651180620       -3.0125580958        0.4206014559
 H          5.9847913627       -2.9847347509       -1.3473066667
 H          6.8601531531       -0.8391446536       -2.1956550686
 H          5.9818030164        1.3006547065       -1.2554088432
 H          3.2516769706        2.7404018312       -1.2699990036
 H          2.3013265629        1.5241971171       -3.0206627403
 H          0.7250228340       -0.2429433771       -3.7147462730
 H         -0.5248538080       -1.5268133940       -2.0260472542
 H          0.0040333680       -0.9820316296        1.6718680459
 C         -0.2988940959       -2.7632493882        0.5364524795
 C          0.9513462599       -3.4452945621        0.9998888174
 C         -0.3281686552       -3.6288774610        1.7584343301
 H         -0.8328165191       -4.5816912639        1.7027783752
 H         -0.4294904591       -3.1381865714        2.7161816142
 H          1.3294390946       -4.2747740159        0.4227512432
 H          1.7166836617       -2.8304271527        1.4490571946
 H         -0.7864153454       -3.1466136128       -0.3492406508
