  62
        -98.94441157
 C         -2.4397055381       -0.9745215042        0.0214637776
 C         -2.8140079456       -0.0829736413        1.0620990173
 C         -3.2136754541        1.2693052725        0.6589120622
 C         -3.2247809593        1.5855539117       -0.6481598541
 C         -3.5539797793        2.9404950120       -1.2025282805
 C         -2.2885978831        3.7939065433       -1.3662149201
 C         -1.3948340635        3.8249988005       -0.1258527336
 H         -0.9637950817        2.8319102521        0.0285820905
 H         -0.5602534594        4.4942284095       -0.3480499971
 C         -2.0991266768        4.2929178677        1.1558520520
 H         -1.4438839936        4.9960911110        1.6741260770
 H         -3.0131125697        4.8299389103        0.8990997955
 C         -2.4278479493        3.1768289976        2.1493192876
 H         -1.5352674410        2.5701067112        2.3230280305
 H         -2.7024560539        3.6395411611        3.1009762290
 C         -3.5743081986        2.2406883880        1.7467868892
 H         -4.4502877525        2.8285725501        1.4660091916
 H         -3.8306515312        1.6327637438        2.6192145479
 H         -1.7003827584        3.3898396077       -2.1940393285
 H         -2.5897305578        4.8106737240       -1.6264056899
 H         -4.2573336908        3.4384397514       -0.5378728790
 H         -4.0208989714        2.8089063479       -2.1802483932
 O         -2.8901582296        0.7015830809       -1.6195292248
 C         -2.4489468627       -0.5779265627       -1.3154174721
 O         -2.1174679049       -1.2340301592       -2.3259707407
 O         -2.8132865940       -0.4113594174        2.2785641429
 C         -1.9436915938       -2.3436248531        0.4625447128
 C         -0.4418789754       -2.2869397806        0.6102179788
 C          0.1788342895       -2.5021707926        1.8347775499
 C          1.5496610336       -2.3596536701        1.9665750987
 C          2.3248061345       -1.9751285472        0.8862607865
 C          1.7107286551       -1.7576279949       -0.3392388495
 C          0.3453701180       -1.9370228546       -0.4777781319
 H         -0.1196281512       -1.7534902966       -1.4356319323
 N          2.4851167483       -1.2674383259       -1.4263983722
 S          2.6302930991        0.4150551560       -1.3325360199
 O          1.4238828426        1.0229438578       -0.8142625971
 O          3.0547664250        0.8509929900       -2.6454459325
 C          3.9628735647        0.6191230089       -0.1716832427
 C          3.6918105147        1.0591601022        1.1087094050
 C          4.7380150349        1.1789399934        2.0103400914
 C          6.0283030424        0.8573415287        1.6171996381
 C          6.2838862855        0.4186170167        0.3262536911
 C          5.2425348055        0.2960682855       -0.5796851892
 H          5.3928611558       -0.0360111649       -1.5933547871
 H          7.2886614586        0.1704847599        0.0244835902
 H          6.8395810959        0.9500295761        2.3218647448
 H          4.5405274901        1.5194174031        3.0140637914
 H          2.6717596955        1.2931737274        1.3694997789
 H          2.0609429150       -1.4865884820       -2.3190742483
 H          3.3897001292       -1.8390467806        0.9826759608
 H          2.0166976616       -2.5308103145        2.9241816152
 H         -0.4258759316       -2.7563270211        2.6928736365
 H         -2.3740648873       -2.5014783956        1.4607274378
 C         -2.3705978950       -3.4884706010       -0.4320146063
 C         -2.3873241971       -4.8777165874        0.1295956642
 C         -3.6762994558       -4.1751664973       -0.1717166426
 H         -4.2610846975       -4.5024724593       -1.0180692703
 H         -4.2704931372       -3.8200478216        0.6575850324
 H         -2.0846198823       -5.6931984999       -0.5089106273
 H         -2.1094119734       -5.0020318139        1.1651036758
 H         -2.0735111177       -3.3648079366       -1.4650907423
