  62
        -98.93762234
 C          1.1641341488        0.8461969643        0.6319897413
 C          1.9178899805        0.6175249784       -0.5431246245
 C          2.9265674877       -0.4584712421       -0.4791366445
 C          3.0297200430       -1.2100245245        0.6315870353
 C          3.9181827762       -2.3921300251        0.9594832052
 C          5.1378387448       -2.7162499281        0.1005596084
 C          6.2593458867       -1.6797629935        0.1626782522
 H          6.7076868890       -1.7128157253        1.1588336931
 H          7.0282131240       -1.9665987634       -0.5579673710
 C          5.8394314094       -0.2369337126       -0.1064018091
 H          6.7318467336        0.3901952213       -0.0315309551
 H          5.1478802575        0.0939096476        0.6711486043
 C          5.2071058355        0.0161740361       -1.4736593412
 H          5.1101739925        1.0982978264       -1.5955406966
 H          5.8707452433       -0.3502154184       -2.2591347650
 C          3.8122907791       -0.5994641531       -1.6833978215
 H          3.3174042711       -0.0531974732       -2.4919788365
 H          3.8790454852       -1.6408020841       -1.9901465928
 H          4.8369250531       -2.8920373795       -0.9281434083
 H          5.5397499749       -3.6608019397        0.4774893334
 H          4.2396380027       -2.2440917535        1.9956290564
 H          3.2555281861       -3.2652928299        0.9645566511
 O          2.2129603963       -1.0125818621        1.7084588071
 C          1.2686145815       -0.0027994902        1.7341870730
 O          0.5862261302        0.0315213049        2.7787409489
 H         -0.9738241557       -0.3174363931       -0.1990187651
 C         -1.3210237312        0.5263433108       -0.7755553323
 C         -0.8334198483        1.7940321134       -0.4861075013
 C         -1.2537984055        2.8593642484       -1.2707137837
 C         -2.1357533126        2.6477780750       -2.3172082711
 C         -2.6334630880        1.3864413799       -2.5887860654
 C         -2.2146401922        0.3128258112       -1.8103767396
 N         -2.6860996636       -0.9873344827       -2.0445215189
 S         -2.8759023048       -2.0426895981       -0.7646762842
 O         -1.5977175646       -2.5544327309       -0.3346199917
 O         -3.8132576249       -3.0303963850       -1.2567709046
 C         -3.6448039519       -1.0767375863        0.5242243564
 C         -4.9275452156       -0.6173262854        0.2931500435
 C         -5.5445350226        0.1673679050        1.2528559859
 C         -4.8698935637        0.4833414001        2.4227459941
 C         -3.5862593600        0.0099324019        2.6431050614
 C         -2.9650654925       -0.7790907499        1.6872571392
 H         -1.9637446715       -1.1537127936        1.8360315409
 H         -3.0524849613        0.2521459194        3.5485451541
 H         -5.3460578800        1.0995907775        3.1688724279
 H         -6.5450392017        0.5323076728        1.0861074596
 H         -5.4236853529       -0.8927314711       -0.6231838751
 H         -3.4283930659       -1.0640031618       -2.7234598812
 H         -3.3253681764        1.2275755438       -3.4014095482
 H         -2.4467148738        3.4819260525       -2.9276071166
 H         -0.8773434904        3.8505782812       -1.0792044703
 C          0.0914756564        1.9187419009        0.7008310280
 H         -0.5007533616        1.6577206096        1.5947005482
 C          0.6120958934        3.3302468944        0.9294999620
 C          1.9788797948        3.5725582255        1.4958757711
 C          1.6798177030        3.9437453357        0.0761005958
 H          1.5977303142        4.9923985566       -0.1705435509
 H          2.0931476761        3.3371812876       -0.7132661733
 H          2.1005596320        4.3609819866        2.2236947437
 H          2.6054035747        2.7106580956        1.6767038801
 H         -0.1705409955        3.9967169982        1.2786779455
 O          1.7665264188        1.2689989798       -1.6086374077
