  62
        -98.93915608
 C         -2.2407701396        0.1088088894       -0.2832273096
 C         -3.2776854417        0.7085113641        0.4734760656
 C         -4.4228562542       -0.1573264937        0.7876252432
 C         -4.4261187243       -1.4432880702        0.3958612108
 C         -5.5089117230       -2.4524686826        0.6657980568
 C         -6.6726952263       -2.4007467920       -0.3337574497
 C         -7.6022484324       -1.1950815524       -0.1890767779
 H         -8.4855258455       -1.3972968478       -0.7982018475
 H         -7.9325880609       -1.1148895878        0.8469650380
 C         -6.9866961193        0.1369068838       -0.6400254203
 H         -6.1082980264       -0.0587284960       -1.2594977416
 H         -7.7031512432        0.6766163569       -1.2634143209
 C         -6.5875948973        1.0699572239        0.5031966593
 H         -7.4797997838        1.3799421832        1.0516760746
 H         -6.1293812065        1.9633983886        0.0717559085
 C         -5.5908729042        0.4595634271        1.4969748330
 H         -5.2076657394        1.2599908712        2.1342294425
 H         -6.0887351568       -0.2797086161        2.1236820926
 H         -6.2637756870       -2.4265252510       -1.3465451260
 H         -7.2643857561       -3.3079904313       -0.1914160597
 H         -5.0395103630       -3.4361943842        0.5973546536
 H         -5.8907027418       -2.3189088778        1.6783081417
 O         -3.3964928925       -1.9935677734       -0.3018306809
 C         -2.3027318324       -1.2326959075       -0.6745677526
 O         -1.4577972765       -1.8579502905       -1.3486265473
 H          1.4560671389       -0.2734072482       -0.6418395332
 C          1.2521203592        0.3219337951        0.2368475123
 C          0.0270708205        0.9574972786        0.3768281251
 C         -0.2170468624        1.6967086901        1.5298765631
 C          0.7517196584        1.8003038373        2.5108327982
 C          1.9837312729        1.1899645769        2.3551365180
 C          2.2328844971        0.4400625317        1.2117350677
 N          3.4635044060       -0.2117472887        1.0349213529
 S          4.0892781446       -0.3349082214       -0.5277068504
 O          3.8847855862        0.9053186071       -1.2416914424
 O          3.5629815621       -1.5245624728       -1.1489424534
 C          5.8212334184       -0.5590659228       -0.1669304274
 C          6.2804910273       -1.8261414101        0.1395292947
 C          7.6203948090       -1.9955259065        0.4503873671
 C          8.4734543914       -0.9017551658        0.4507447268
 C          7.9984076311        0.3633912290        0.1392774497
 C          6.6592791447        0.5401360531       -0.1715428821
 H          6.2469761304        1.5025334626       -0.4289568017
 H          8.6646525771        1.2109531587        0.1366807989
 H          9.5158471497       -1.0370140172        0.6922575242
 H          7.9938423883       -2.9780809956        0.6898508863
 H          5.5819865129       -2.6465209139        0.1169244263
 H          4.1643132483        0.0768063667        1.7037271216
 H          2.7442128013        1.2852165116        3.1153697801
 H          0.5501467023        2.3754619803        3.4019620177
 H         -1.1746204692        2.1789603999        1.6502340032
 C         -0.9945708160        0.8556799555       -0.7310354300
 H         -0.5511133641        0.2405308073       -1.5267448506
 C         -1.2899261514        2.2304338889       -1.3017674913
 C         -0.2378189512        2.9031152531       -2.1292246197
 C         -1.4867500945        2.3868351777       -2.7777107329
 H         -2.2188043764        3.0992923589       -3.1274986073
 H         -1.4138056775        1.4988233766       -3.3894466812
 H         -0.1124962507        3.9708216851       -2.0339169094
 H          0.6856732569        2.3668826892       -2.2961665723
 H         -1.8913777914        2.8485178408       -0.6487295795
 O         -3.2747115148        1.9005601074        0.8787706757
