  62
        -98.93885318
 C          1.8543959339        0.8957956995       -0.1191850643
 C          2.4411329908        0.1740043350        0.9435222670
 C          3.5457526910       -0.7429350695        0.6012916877
 C          3.9041561655       -0.8678258862       -0.6904296999
 C          5.0143439308       -1.7028740167       -1.2707118970
 C          6.4031207336       -1.0845169332       -1.0403093702
 C          6.6366811516       -0.5297993880        0.3625664980
 H          7.6045131603       -0.0215716161        0.3612080895
 H          5.8767052982        0.2224129255        0.5816828747
 C          6.6583719806       -1.5708328042        1.4792129299
 H          7.4502219072       -2.2958092399        1.2777726744
 H          6.9142101999       -1.0488030272        2.4048262940
 C          5.3514168612       -2.3320574826        1.7095048840
 H          5.2074150069       -3.1008772891        0.9550249732
 H          5.4422788440       -2.8520525597        2.6678011087
 C          4.1097738226       -1.4514831789        1.8096846752
 H          4.2829308298       -0.6731667064        2.5616700067
 H          3.2861686349       -2.0570559915        2.2079090307
 H          7.1582955891       -1.8390658547       -1.2667729315
 H          6.5263354845       -0.2609577012       -1.7478068482
 H          4.8334761922       -1.7600659114       -2.3464329685
 H          4.9683792082       -2.7130457039       -0.8744137742
 O          3.2848334842       -0.1752474402       -1.6888183448
 C          2.2546699374        0.7140704199       -1.4424694946
 O          1.7898934538        1.2618720088       -2.4593552563
 O          2.0595645457        0.2853647892        2.1413691370
 C          0.7253677524        1.8643439870        0.1814118017
 C         -0.5426167981        1.4091357331       -0.4986683863
 C         -1.3616148180        2.2508255926       -1.2389383454
 C         -2.5097185356        1.7623040046       -1.8399618489
 C         -2.8712792932        0.4348283224       -1.7089589688
 C         -2.0692310311       -0.4116037295       -0.9527547603
 C         -0.9222861151        0.0801287039       -0.3500315937
 H         -0.2981838331       -0.5825692075        0.2369299159
 N         -2.4358147551       -1.7586909647       -0.7954206991
 S         -4.0382087710       -2.1013098358       -0.4565250674
 O         -4.0121859677       -3.3520524513        0.2692016969
 O         -4.8040409562       -2.1002035721       -1.6780276899
 C         -4.5882072827       -0.7734063304        0.6008648041
 C         -3.9273805813       -0.5785517742        1.7976770942
 C         -4.3188044417        0.4677133193        2.6167434407
 C         -5.3593938848        1.2973217986        2.2271153710
 C         -6.0162404853        1.0853425384        1.0251864412
 C         -5.6273557200        0.0415236187        0.2007867821
 H         -6.1078539690       -0.1572247020       -0.7432695708
 H         -6.8259150043        1.7308807182        0.7256468890
 H         -5.6590262379        2.1128248178        2.8661676935
 H         -3.8078267993        0.6335014598        3.5516927469
 H         -3.1242117147       -1.2427013712        2.0751309703
 H         -1.8124055621       -2.2885516940       -0.2049846496
 H         -3.7517635734        0.0367575430       -2.1865497143
 H         -3.1300621482        2.4254007562       -2.4230723637
 H         -1.0966450051        3.2883889101       -1.3559090488
 H          0.5690548277        1.7990695963        1.2686665434
 C          1.1313730643        3.2801460958       -0.1682364115
 C          0.5378073953        4.4404193879        0.5717704142
 C          1.9662876499        4.0539990146        0.8062228383
 H          2.7466402117        4.6938776975        0.4223754135
 H          2.2203966805        3.5681372430        1.7371228032
 H          0.3380724469        5.3511547625        0.0277495846
 H         -0.1787646805        4.2234091254        1.3491729682
 H          1.3535298458        3.4008279852       -1.2224673254
