  62
        -98.94739792
 C          2.5636175041       -0.1443410826        0.3981367878
 C          2.1632584718       -0.7131626685       -0.8351885989
 C          1.7121383857       -2.1108927745       -0.7794492369
 C          1.6856936594       -2.7482310655        0.4049330111
 C          1.2244110098       -4.1618667467        0.6123759256
 C         -0.2696544199       -4.2264558299        0.9542669252
 C         -1.1626954489       -3.4401609260       -0.0058634724
 H         -2.1975157453       -3.6137974296        0.3000119287
 H         -0.9758030978       -2.3701213499        0.1176478362
 C         -0.9959974884       -3.8154126761       -1.4849791596
 H         -1.9871763968       -3.8939553065       -1.9362877699
 H         -0.5204723703       -4.7939696378       -1.5693485634
 C         -0.2131359652       -2.7911310974       -2.3092229847
 H         -0.6105855791       -1.7922108088       -2.1142152147
 H         -0.3716004439       -3.0117689995       -3.3686643643
 C          1.3020528215       -2.7597816625       -2.0711927179
 H          1.7089780186       -3.7716410157       -2.1400100647
 H          1.7500017758       -2.1528944833       -2.8636795387
 H         -0.5747897833       -5.2750108880        0.9605964057
 H         -0.4141556731       -3.8216987655        1.9588734472
 H          1.4262698204       -4.7374301966       -0.2891248353
 H          1.7945273556       -4.5874572856        1.4404134935
 O          2.0650273881       -2.1638248390        1.5716033375
 C          2.4948376963       -0.8479376687        1.5988452135
 O          2.7961899731       -0.4274856725        2.7365049739
 O          2.1993759280       -0.0913416854       -1.9297256331
 C          3.0146562289        1.3042896729        0.4539349555
 C          1.9047614713        2.2024589010       -0.0384112555
 C          2.1165639779        3.3123532736       -0.8464767643
 C          1.0465100636        4.0798281702       -1.2739502032
 C         -0.2498855960        3.7510067944       -0.9227038774
 C         -0.4701506704        2.6513236976       -0.1012970258
 C          0.6052784197        1.9053226558        0.3499327553
 H          0.4220599988        1.0544987833        0.9908902015
 N         -1.7700015449        2.2774933676        0.2929370843
 S         -2.0820461885        0.6125516186        0.3030930131
 O         -1.6390352383        0.0610042199        1.5602487084
 O         -1.5514408124        0.0076247943       -0.8952664468
 C         -3.8646306740        0.6109784224        0.2554756822
 C         -4.5530394394        0.9957727786        1.3907700035
 C         -5.9380648600        1.0214162481        1.3572538789
 C         -6.6078739531        0.6628695462        0.1964326359
 C         -5.9034275922        0.2757950698       -0.9333625764
 C         -4.5174847868        0.2502982487       -0.9074472983
 H         -3.9259780749       -0.0477842123       -1.7582392227
 H         -6.4262084148       -0.0060838269       -1.8330269492
 H         -7.6859444168        0.6823594187        0.1736102557
 H         -6.4890654092        1.3189114392        2.2347465824
 H         -3.9894173979        1.2549769656        2.2718422372
 H         -2.4842511586        2.7709086044       -0.2269997284
 H         -1.0840635428        4.3360365230       -1.2794977257
 H          1.2241520329        4.9366824676       -1.9060933732
 H          3.1180347569        3.5693169407       -1.1509199910
 H          3.1859780581        1.5274923264        1.5181698401
 C          4.3162624147        1.4859680654       -0.2994815302
 C          5.3068038522        2.5218495724        0.1378959661
 C          5.5949224462        1.0684774757        0.3605171644
 H          6.3541223674        0.5918859814       -0.2410443421
 H          5.5261251794        0.6787778235        1.3660740936
 H          5.8742889156        3.0438936374       -0.6176997705
 H          5.0544606847        3.1235536329        0.9979837815
 H          4.2115460994        1.2876225809       -1.3599162868
