  62
        -98.93338972
 C          2.4199273320        1.0813773341        0.3677235368
 C          2.4824642032       -0.1105936222        1.1337708218
 C          3.6750425354       -0.9583005240        0.9625127349
 C          4.6390035294       -0.5574423442        0.1158860240
 C          5.9143932059       -1.2714208585       -0.2387272561
 C          5.7242004654       -2.1416898088       -1.4924331748
 C          5.2119653786       -3.5556597411       -1.2222782127
 H          5.0036319117       -4.0170584245       -2.1902229628
 H          6.0018693112       -4.1385149689       -0.7440494407
 C          3.9515327946       -3.6389326157       -0.3574007801
 H          3.2374721814       -2.8743924430       -0.6702320309
 H          3.4832313007       -4.6085154327       -0.5380559078
 C          4.2398025555       -3.4986420665        1.1447693132
 H          3.7799270893       -4.3314380801        1.6810781929
 H          5.3135863458       -3.5780240527        1.3124927701
 C          3.7093206610       -2.2125444290        1.7930858984
 H          4.2813447926       -2.0102980602        2.7052412941
 H          2.6714021593       -2.3648180797        2.1068906377
 H          5.0329457944       -1.6208595666       -2.1599075278
 H          6.6816063191       -2.2223974765       -2.0109507419
 H          6.2726332398       -1.8609743887        0.5997510310
 H          6.6492973364       -0.4955310544       -0.4628035348
 O          4.5432824001        0.5949481058       -0.5987955895
 C          3.4468683111        1.4356577328       -0.5075585103
 O          3.5315372488        2.4373575401       -1.2443026623
 O          1.5750000826       -0.4527510107        1.9417334278
 C          1.1911649905        1.9533164547        0.5608556279
 C          0.1706685483        1.7451204407       -0.5333906187
 C          0.4491051482        2.0593468108       -1.8596840249
 C         -0.5102335588        1.8695623812       -2.8372030484
 C         -1.7588845224        1.3685801853       -2.5146220566
 C         -2.0507800402        1.0595208547       -1.1908405849
 C         -1.0847456383        1.2484051596       -0.2121170218
 H         -1.3146640578        0.9859551967        0.8097023066
 N         -3.3314267682        0.6005898296       -0.8375132482
 S         -3.5122460775       -0.4985693636        0.4304072869
 O         -3.3611520638        0.2027996360        1.6800504629
 O         -2.6592235669       -1.6474319536        0.2215003754
 C         -5.2234512311       -0.9442770348        0.2006285913
 C         -6.1957108440       -0.0614217662        0.6319355561
 C         -7.5286071262       -0.3823989129        0.4311533738
 C         -7.8657399151       -1.5738505595       -0.1942015034
 C         -6.8793287956       -2.4509025636       -0.6191800923
 C         -5.5438530659       -2.1351455123       -0.4226785663
 H         -4.7430465289       -2.7889832464       -0.7290298692
 H         -7.1443997685       -3.3778335169       -1.1017412194
 H         -8.9039806133       -1.8216649567       -0.3487428526
 H         -8.2984100743        0.2955326321        0.7627908598
 H         -5.8858312571        0.8475193035        1.1205198691
 H         -3.8736310143        0.3138273225       -1.6417197839
 H         -2.5048874467        1.2215325822       -3.2809233563
 H         -0.2812896287        2.1114462296       -3.8642375015
 H          1.4258958102        2.4395794288       -2.1157033974
 H          0.7387676669        1.6031101713        1.4993401011
 C          1.5132500196        3.4283466765        0.7082748956
 C          0.5134531460        4.3205593124        1.3779842438
 C          1.8000456090        3.9839047852        2.0691553057
 H          2.5537660537        4.7510990325        2.1631665586
 H          1.7661579235        3.2998704932        2.9050126045
 H          0.3806766989        5.3215944566        0.9977310023
 H         -0.3939321654        3.8641872074        1.7453564624
 H          2.0751911548        3.8321203791       -0.1234613813
