  62
        -98.93679909
 C         -2.2250441337       -1.0698056379       -0.0828556507
 C         -3.3071310100       -0.8767626921        0.8084852769
 C         -4.2847930636        0.1681016636        0.4550353003
 C         -4.0731604227        0.9114347992       -0.6458752918
 C         -4.9170709837        2.0252492220       -1.2128638006
 C         -5.4853339158        3.0442343473       -0.2131865994
 C         -6.9978371724        2.9263197794       -0.0152774932
 H         -7.3808375632        3.8902884175        0.3269775170
 H         -7.4592124500        2.7179813427       -0.9828638375
 C         -7.4415211696        1.8686690766        0.9938533997
 H         -7.1940982170        2.2056093223        2.0027942860
 H         -8.5296961826        1.7915285010        0.9347454063
 C         -6.8393497028        0.4774519749        0.7885772076
 H         -7.5005280648       -0.2470877948        1.2685415322
 H         -6.8094411009        0.2273013958       -0.2713487461
 C         -5.4417857233        0.3157263349        1.4052247097
 H         -5.4126763718       -0.5903651441        2.0182271263
 H         -5.2357439781        1.1455745787        2.0871217198
 H         -4.9686043776        2.9554841862        0.7410969722
 H         -5.2742097630        4.0419264933       -0.6017179455
 H         -5.7309771433        1.5806801802       -1.7914549901
 H         -4.2678224257        2.5325729246       -1.9303377491
 O         -2.9974993168        0.7114007977       -1.4604819427
 C         -2.0584387122       -0.2763978283       -1.2166523311
 O         -1.1539260985       -0.3386715502       -2.0722219776
 O         -3.4583637219       -1.5582651241        1.8577614720
 C         -1.2102298814       -2.1534874109        0.2428999987
 C          0.0996308392       -1.4901573772        0.5876325271
 C          0.2729975878       -0.9532805672        1.8607975579
 C          1.4356875866       -0.2841047867        2.1917796752
 C          2.4469163365       -0.1271134767        1.2591120095
 C          2.2755596941       -0.6421486198       -0.0179994390
 C          1.1149900140       -1.3337062122       -0.3420171157
 H          0.9917083757       -1.7180432118       -1.3419950335
 N          3.2906378284       -0.4845632486       -0.9762373925
 S          4.0340922633        1.0113708833       -1.1273467343
 O          3.1556864523        2.0954750457       -0.7524911809
 O          4.5526459754        1.0398656012       -2.4778926258
 C          5.4024708547        0.9118993295        0.0102755877
 C          5.6105809978        1.9237850836        0.9269059083
 C          6.6887750755        1.8327751063        1.7936691661
 C          7.5360737931        0.7374556237        1.7282894978
 C          7.3149674738       -0.2693518642        0.8003015034
 C          6.2399321169       -0.1836478240       -0.0697642520
 H          6.0351637154       -0.9430350469       -0.8056642543
 H          7.9756554240       -1.1199517005        0.7526426671
 H          8.3734378242        0.6681343069        2.4045513659
 H          6.8617865896        2.6150307495        2.5152581646
 H          4.9215405685        2.7533472686        0.9457504096
 H          3.0452959405       -0.8540933833       -1.8836827736
 H          3.3510681683        0.4046823814        1.5063432167
 H          1.5576936689        0.1230377933        3.1840180566
 H         -0.5247503815       -1.0580253073        2.5829530988
 H         -1.5924620898       -2.6448803237        1.1476332319
 C         -1.1087952832       -3.1815219014       -0.8640439191
 C         -0.4472079700       -4.4970743166       -0.5855065190
 C         -1.9315598478       -4.4306394329       -0.7787864918
 H         -2.3531037756       -4.8313120036       -1.6885180998
 H         -2.5668985013       -4.5515372947        0.0862204114
 H          0.1526063321       -4.9477326724       -1.3613309855
 H         -0.0729723656       -4.6623156657        0.4132830832
 H         -0.9791343248       -2.7439197992       -1.8466391393
