  62
        -98.94487209
 C          1.9372231903        0.5426490700       -0.6148633608
 C          3.0059639831        1.3206890753       -0.1072490539
 C          4.3428943681        0.7306590846       -0.2319465653
 C          4.4892130884       -0.4708675676       -0.8196208136
 C          5.7904016755       -1.1919026044       -1.0461986989
 C          6.2734475233       -2.0034714050        0.1636773159
 C          6.8062729838       -1.1737038153        1.3324668167
 H          7.5597948657       -0.4754477751        0.9667691767
 H          7.3062389094       -1.8649187388        2.0139029974
 C          5.7259635550       -0.4088287360        2.1098585842
 H          5.8844681331       -0.5442662728        3.1821151323
 H          4.7444265965       -0.8280178716        1.8762985180
 C          5.6985810160        1.0961088328        1.8424640567
 H          6.6291164054        1.5474793973        2.1935482721
 H          4.8761010729        1.5312248782        2.4157869256
 C          5.4992702488        1.4721318513        0.3682322963
 H          6.4108420674        1.2777494595       -0.1962927170
 H          5.2738236442        2.5399305855        0.3137825448
 H          7.0749213337       -2.6596336384       -0.1835421551
 H          5.4525898219       -2.6361749770        0.5093799309
 H          5.6227261168       -1.8801125743       -1.8775079996
 H          6.5602512571       -0.4766720870       -1.3372357276
 O          3.4377514739       -1.1809667608       -1.3083129890
 C          2.1368833701       -0.7074102297       -1.2003778165
 O          1.2741758519       -1.4782604841       -1.6619331016
 H         -1.7387380327       -0.4015711601       -1.1369541409
 C         -1.4136863281       -0.5152093977       -0.1171548265
 C         -0.3012848563        0.1626530335        0.3537399509
 C          0.0947129898       -0.0389004775        1.6748487015
 C         -0.5965454931       -0.9068740587        2.4958574388
 C         -1.7050809520       -1.5863851009        2.0201154900
 C         -2.1105474491       -1.3919440202        0.7057900919
 N         -3.2168750836       -2.0896857443        0.1965388129
 S         -4.3703197325       -1.3258517025       -0.7384388324
 O         -5.4777626114       -2.2554543119       -0.7725321669
 O         -3.8198409344       -0.9409168653       -2.0120579615
 C         -4.8229749686        0.1163742881        0.2077716302
 C         -5.7462720571       -0.0313246467        1.2249012821
 C         -6.0629613354        1.0663156872        2.0081852920
 C         -5.4472377302        2.2855400772        1.7678647476
 C         -4.5221979762        2.4167823123        0.7438741124
 C         -4.2034541484        1.3230502742       -0.0458557826
 H         -3.4922371570        1.3883046635       -0.8523271439
 H         -4.0456974935        3.3657986014        0.5563041033
 H         -5.6912900754        3.1395433119        2.3797956942
 H         -6.7852865107        0.9685740445        2.8025149061
 H         -6.2095288275       -0.9938121196        1.3700740358
 H         -3.6514379082       -2.7193520784        0.8550273242
 H         -2.2429926999       -2.2726203655        2.6564721129
 H         -0.2736211884       -1.0565853832        3.5150350420
 H          0.9634173871        0.4898619247        2.0428166701
 C          0.5235210894        1.0883680179       -0.5047167484
 H          0.6264052055        2.0474092591        0.0238387053
 C         -0.0592042628        1.3509392428       -1.8760305169
 C         -1.1192260693        2.3954052827       -2.0514031576
 C          0.2665678013        2.6397202059       -2.5672906395
 H          0.4330802358        2.6240917803       -3.6339638373
 H          0.8930523030        3.3424601571       -2.0375428971
 H         -1.4290825198        2.9414344520       -1.1729735873
 H         -1.9087488349        2.2122899507       -2.7655368927
 H         -0.1138065982        0.4599295992       -2.4916551369
 O          2.8489428535        2.4523410415        0.4239719375
