  62
        -98.94269851
 C         -1.0987694228       -1.4079451193       -0.8915590677
 C         -0.4491662253       -2.2678092092        0.0258598042
 C          0.9811465243       -2.5015542229       -0.2152691146
 C          1.5961706763       -1.8735359661       -1.2321235054
 C          3.0570027563       -1.9605469600       -1.5829157044
 C          4.0087657371       -1.3639779104       -0.5262782349
 C          4.6054024042       -2.4021987101        0.4324461172
 H          4.5767084122       -3.3820060709       -0.0464925211
 H          5.6581356647       -2.1641677022        0.5985776374
 C          3.9438466432       -2.4899564562        1.8113881070
 H          4.2742154808       -3.4192704661        2.2819567788
 H          4.2989722248       -1.6619731459        2.4297181358
 C          2.4148689633       -2.4397850126        1.8293240961
 H          2.0784605221       -2.7223359501        2.8296406564
 H          2.0776768958       -1.4117573121        1.6746339741
 C          1.7236519519       -3.3385967929        0.7849008573
 H          2.4489619106       -3.9815476154        0.2878161088
 H          0.9806427601       -3.9692644703        1.2778631080
 H          3.4845632686       -0.5894660582        0.0365098734
 H          4.8273220985       -0.8800544632       -1.0621942453
 H          3.3201614240       -3.0043381510       -1.7668505624
 H          3.1715734381       -1.4161977919       -2.5225168953
 O          0.9342467587       -1.0594425461       -2.0983564071
 C         -0.4125484108       -0.7829196027       -1.9317952584
 O         -0.8783634785        0.0226706769       -2.7639047300
 H         -0.9285434677        1.0104856018       -0.0441360118
 C         -1.6035563386        0.8098356248        0.7752395882
 C         -2.5588582808       -0.1897886933        0.6357524094
 C         -3.4349458019       -0.4206172194        1.6867626693
 C         -3.3231686909        0.3101780524        2.8584147281
 C         -2.3325148588        1.2624111504        3.0136555170
 C         -1.4605952176        1.5111961365        1.9588635671
 N         -0.4408583055        2.4695558643        2.0561841160
 S          1.0093505344        2.2168616996        1.2583815672
 O          1.3797973712        0.8212436687        1.2225653598
 O          1.9434308560        3.0932576786        1.9369636862
 C          0.7399197167        2.8379556674       -0.3865113640
 C          1.3803009259        2.2233015941       -1.4430987226
 C          1.1971192477        2.7222078322       -2.7223162636
 C          0.3840575204        3.8265459338       -2.9200128060
 C         -0.2456714688        4.4387271571       -1.8469602374
 C         -0.0664087807        3.9444088589       -0.5653839164
 H         -0.5453320201        4.3897977615        0.2907007525
 H         -0.8792455168        5.2964842983       -2.0062639792
 H          0.2372383218        4.2075840324       -3.9183239467
 H          1.6779049670        2.2369897597       -3.5563235725
 H          1.9897210038        1.3536780030       -1.2520340208
 H         -0.3083961951        2.8723310356        2.9721787753
 H         -2.2278022581        1.8050297317        3.9407633261
 H         -4.0052597318        0.1182290653        3.6728310781
 H         -4.1925322336       -1.1816959378        1.5972329603
 C         -2.5379905519       -0.9808739156       -0.6515303092
 H         -2.7950815899       -0.3006801564       -1.4766265605
 C         -3.4875545546       -2.1574465434       -0.6690383677
 C         -4.9282177340       -1.9506033207       -1.0262217688
 C         -4.0107612950       -2.6460621345       -1.9851701371
 H         -4.1238690874       -3.7096919045       -2.1313388253
 H         -3.6971882033       -2.1147112968       -2.8720731678
 H         -5.6756428456       -2.5392445381       -0.5161775682
 H         -5.2443548715       -0.9468206704       -1.2665569607
 H         -3.2447521868       -2.9014572227        0.0800738738
 O         -1.0283620371       -2.8137980362        1.0016173248
