  62
        -98.94166664
 C         -1.2726226066       -1.2122011208       -0.0983323401
 C         -2.0659814589       -0.6150189296        0.9085153451
 C         -2.6275012206        0.7103131636        0.6009749820
 C         -2.3509195395        1.2851006722       -0.5818061765
 C         -2.7617574671        2.6473133692       -1.0821169876
 C         -4.2100480034        3.0887543866       -0.8287041860
 C         -5.2454415834        1.9545419206       -0.8295910164
 H         -6.0667029841        2.2251133652       -1.4956764935
 H         -4.7974303071        1.0387279281       -1.2185935218
 C         -5.8360892897        1.6839791640        0.5563129416
 H         -6.0468103212        2.6402098242        1.0401107355
 H         -6.7880344873        1.1611763404        0.4367888016
 C         -4.9689121726        0.8354351426        1.4857555724
 H         -5.4452142777        0.8182272864        2.4690515183
 H         -4.9397034721       -0.1968449709        1.1262960996
 C         -3.5158669126        1.3102350912        1.6518301384
 H         -3.1436818086        0.9365692594        2.6101045850
 H         -3.4520189598        2.3959933294        1.6603620326
 H         -4.2674383279        3.6203138424        0.1202544440
 H         -4.4602973549        3.8105442375       -1.6080134904
 H         -2.5694530619        2.6248665781       -2.1574448863
 H         -2.0800883630        3.3848395409       -0.6475320145
 O         -1.5788851396        0.6746651315       -1.5240933223
 C         -1.0188367676       -0.5778846712       -1.3122001639
 O         -0.3339851047       -0.9979805458       -2.2631175678
 O         -2.2886632443       -1.1628556437        2.0223620270
 C         -0.6302768683       -2.5609908228        0.1694576151
 C          0.8723159981       -2.4179881216        0.1437738767
 C          1.7091427665       -3.2337886498       -0.6060944591
 C          3.0792211070       -3.0369799241       -0.5870552023
 C          3.6397613072       -2.0261545483        0.1711534520
 C          2.8124801975       -1.2101464323        0.9353567609
 C          1.4426138734       -1.4174799538        0.9232562865
 H          0.8085757211       -0.7795337918        1.5228862187
 N          3.3545477812       -0.1849892692        1.7352558411
 S          2.7689564015        1.3745582702        1.5861868900
 O          3.7093578114        2.1871480489        2.3267854915
 O          1.3950264987        1.4354774642        2.0142701164
 C          2.8969919977        1.7355150239       -0.1531103320
 C          4.0603699332        2.2912423428       -0.6491464928
 C          4.1725995099        2.4963526184       -2.0147472273
 C          3.1334744415        2.1297577031       -2.8577824621
 C          1.9736609662        1.5701280523       -2.3443981248
 C          1.8530937477        1.3739136168       -0.9785695630
 H          0.9638835726        0.9431299186       -0.5465598963
 H          1.1623296090        1.2647064879       -2.9865075378
 H          3.2253309510        2.2806002516       -3.9218107893
 H          5.0704921746        2.9351687430       -2.4191585594
 H          4.8418476833        2.5626935568        0.0420972425
 H          4.3650910808       -0.1669873413        1.7410134017
 H          4.7077000543       -1.8693487957        0.1789409340
 H          3.7180732571       -3.6750846326       -1.1781944515
 H          1.2890329830       -4.0210416653       -1.2096657535
 H         -0.9273621536       -2.8253204100        1.1956174242
 C         -1.1651275957       -3.6120555098       -0.7796497148
 C         -1.1863002201       -5.0539731646       -0.3715253547
 C         -2.4667545056       -4.2806486290       -0.4574633806
 H         -3.1494403619       -4.4970957505       -1.2654500954
 H         -2.9568454475       -3.9950145800        0.4621822904
 H         -0.9926707277       -5.8057299036       -1.1216022275
 H         -0.8093674306       -5.3009658908        0.6094310066
 H         -0.9704727708       -3.3741153794       -1.8191257934
