  62
        -98.94482819
 C         -1.9669147177       -0.4324154899       -0.0690510396
 C         -2.9897763741       -0.6209017952        0.8990153087
 C         -4.1472269753        0.2738683112        0.8087360160
 C         -4.1786980960        1.2260362040       -0.1407067499
 C         -5.2731151816        2.2373279862       -0.3480278233
 C         -6.4557308591        1.7171241377       -1.1766888645
 C         -7.3616143812        0.7150994027       -0.4598542400
 H         -7.6687961268        1.1280051483        0.5015261739
 H         -8.2610407172        0.6043428598       -1.0688266779
 C         -6.7333521684       -0.6698962245       -0.2511218893
 H         -5.8708078278       -0.7816482188       -0.9121191768
 H         -7.4532267288       -1.4421286313       -0.5314822156
 C         -6.2962749701       -0.9582085429        1.1851384689
 H         -7.1720548974       -0.9797869548        1.8374442155
 H         -5.8332568330       -1.9478687198        1.2101857410
 C         -5.2892017979        0.0502692351        1.7534206903
 H         -5.7870373628        0.9934612185        1.9778382252
 H         -4.8789947292       -0.3585786503        2.6800093581
 H         -6.0685483600        1.2672781556       -2.0938839939
 H         -7.0596352059        2.5821620901       -1.4604592409
 H         -5.6322910239        2.5913095452        0.6188257725
 H         -4.8227342082        3.0780693634       -0.8803349725
 O         -3.1719811981        1.3912088292       -1.0363192741
 C         -2.0552116854        0.5666808618       -1.0382469555
 O         -1.2439250891        0.8433830085       -1.9457527360
 H          0.7329221454        0.6741217007       -0.9360890411
 C          1.0774000363        0.3367337890        0.0299343607
 C          0.4048887120       -0.6945542543        0.6705400121
 C          0.8489353618       -1.1004187801        1.9236375453
 C          1.9336538947       -0.4834750536        2.5228494596
 C          2.5986305189        0.5470783412        1.8837849598
 C          2.1604897650        0.9604045560        0.6317437849
 N          2.8371531998        2.0005143432       -0.0301223430
 S          4.5050262582        1.8802627303       -0.1119827993
 O          5.0850176465        2.3904996745        1.1060177401
 O          4.8849559791        2.5698040588       -1.3251611005
 C          4.8375081278        0.1317467706       -0.2472575212
 C          5.5931333400       -0.5012609184        0.7182718980
 C          5.8057670482       -1.8667144330        0.6148594874
 C          5.2566810073       -2.5723641610       -0.4440989586
 C          4.5026117697       -1.9209757120       -1.4082005399
 C          4.2889700105       -0.5559369378       -1.3118283214
 H          3.7084637489       -0.0218715690       -2.0471865956
 H          4.0762658811       -2.4712654292       -2.2314749330
 H          5.4161681225       -3.6362733807       -0.5205059161
 H          6.3937681785       -2.3751362615        1.3618066605
 H          5.9957148710        0.0856122881        1.5277019912
 H          2.4395189222        2.2295854666       -0.9294880605
 H          3.4415741616        1.0447039032        2.3356649028
 H          2.2648650436       -0.8077716528        3.4973989923
 H          0.3269903577       -1.8965121811        2.4340681778
 C         -0.7740118029       -1.3710648292        0.0125712966
 H         -1.0999913761       -2.1853905180        0.6732060561
 C         -0.3858171000       -1.9664262998       -1.3272818996
 C          0.4565991820       -3.2050725810       -1.3543864865
 C         -0.9871812395       -3.2714402281       -1.7507932346
 H         -1.2333614141       -3.4105499412       -2.7929226317
 H         -1.6822657896       -3.7451256308       -1.0729085356
 H          1.2041339010       -3.3005596318       -2.1263611012
 H          0.7434610981       -3.6350138583       -0.4070134945
 H         -0.2192517234       -1.2254102575       -2.0979238289
 O         -2.9358773867       -1.5024975984        1.7966481180
