  62
        -98.93705556
 C         -1.1537142248       -1.4228614980        0.7833196346
 C         -2.0973426361       -1.2670018404       -0.2612709472
 C         -3.1819433479       -0.3091248241       -0.0015450987
 C         -3.2190105438        0.3495146331        1.1705537085
 C         -4.2333446868        1.3932970852        1.5366594380
 C         -3.7416468810        2.7995727273        1.1669609514
 C         -3.2088283997        2.9185198470       -0.2614405702
 H         -2.9354914698        3.9651532987       -0.4165174917
 H         -2.2833656650        2.3425490085       -0.3477231642
 C         -4.1990131558        2.4820861494       -1.3505103714
 H         -5.2128881214        2.4800343377       -0.9477708467
 H         -4.1716328777        3.2172030064       -2.1577279587
 C         -3.8997328486        1.1200046730       -1.9795711211
 H         -2.8500867106        1.0826648862       -2.2837342705
 H         -4.5076282615        1.0223648806       -2.8831688118
 C         -4.1888780941       -0.1004539031       -1.0966084069
 H         -5.1993384914       -0.0306008157       -0.6890815697
 H         -4.1313926858       -0.9904700101       -1.7300544377
 H         -4.5656749605        3.5017192226        1.3098596287
 H         -2.9341442421        3.0769569382        1.8488962006
 H         -5.1695593218        1.1782814203        1.0251003334
 H         -4.3994717161        1.3494648598        2.6146268383
 O         -2.2982290924        0.1677905343        2.1517121709
 C         -1.2252730884       -0.6886235614        1.9651506878
 O         -0.4130186489       -0.7122508556        2.9145327221
 H          0.5023560370        0.1165634747       -0.0493867014
 C          0.9401705612       -0.5339043754       -0.7895076562
 C          0.7761278989       -1.9111452100       -0.6637578030
 C          1.3360125181       -2.7093294445       -1.6531626370
 C          2.0030456828       -2.1392800481       -2.7269092314
 C          2.1549964702       -0.7710724110       -2.8407796568
 C          1.6095857037        0.0415134690       -1.8533936832
 N          1.7183749494        1.4387627727       -1.9075991516
 S          1.8118403848        2.3226474031       -0.4920540409
 O          0.5238226177        2.3882006859        0.1513349800
 O          2.3727566192        3.5915543627       -0.9066683946
 C          2.9982673675        1.4485308190        0.5144565535
 C          4.3087881039        1.4432456735        0.0749268495
 C          5.2591118189        0.7403983172        0.7958353411
 C          4.8844990707        0.0515926489        1.9399617343
 C          3.5683374192        0.0728466360        2.3726259402
 C          2.6125074058        0.7777475056        1.6565062530
 H          1.5818903381        0.8004766798        1.9770981676
 H          3.2670697571       -0.4590710946        3.2612065592
 H          5.6211394434       -0.5025307314        2.4998973591
 H          6.2846964900        0.7282112497        0.4640021181
 H          4.5624295184        2.0011775049       -0.8117006740
 H          2.3221456319        1.7998463928       -2.6306094090
 H          2.6735824769       -0.3356813456       -3.6807305486
 H          2.4170098985       -2.7821869185       -3.4889347985
 H          1.2537113372       -3.7801375206       -1.6216157188
 C          0.0440828127       -2.3444999149        0.5885445932
 H          0.7220933867       -2.1225918100        1.4313606723
 C         -0.4292251878       -3.7770781091        0.7898652404
 C         -0.8661149155       -4.7103260031       -0.2940176757
 C          0.3694316842       -5.0138095312        0.5018362908
 H          0.3161225667       -5.8161289393        1.2233251956
 H          1.3392081516       -4.9157265601        0.0433187630
 H         -1.7491482517       -5.3067475797       -0.1154285962
 H         -0.7842964507       -4.3693839522       -1.3127473705
 H         -1.0190184378       -3.8174160288        1.7041287537
 O         -2.0339244408       -1.8820474025       -1.3554008000
