  62
        -98.93839537
 C          2.6219406557        0.2750561753        0.0190576239
 C          2.2528355700        1.2656504879       -0.9205602676
 C          1.5963434187        2.4589065836       -0.3748912139
 C          1.4146326909        2.5670123479        0.9535618567
 C          0.7395831626        3.7046749651        1.6700926750
 C         -0.7735160530        3.8275718342        1.3991229881
 C         -1.1322905114        4.8411961869        0.3051451264
 H         -2.0237532912        5.3906590218        0.6143514041
 H         -0.3254226813        5.5710814826        0.2246532657
 C         -1.4279751099        4.2554617751       -1.0792669818
 H         -1.4044346682        5.0747380139       -1.8018319191
 H         -2.4381319048        3.8391548661       -1.0825599376
 C         -0.4863800845        3.1484962185       -1.5560153668
 H         -0.7301752302        2.2137093321       -1.0428980967
 H         -0.6801345019        2.9671123847       -2.6160612377
 C          1.0143127707        3.4395790321       -1.3507446252
 H          1.5500092271        3.3026944424       -2.2926031481
 H          1.1663467927        4.4628087217       -1.0103123523
 H         -1.1731976125        2.8415995707        1.1570307506
 H         -1.2417027006        4.1488672941        2.3309843250
 H          1.2389004664        4.6401801927        1.4089359097
 H          0.9011191718        3.5206813207        2.7338963464
 O          1.8538050429        1.6255873787        1.8312565392
 C          2.4010411496        0.4325783272        1.3870389140
 O          2.6596824987       -0.3823515403        2.2942832814
 O          2.4494935314        1.1479736904       -2.1623174204
 C          3.1072796691       -1.0707182582       -0.4852518504
 C          2.0839098621       -2.1273033872       -0.1348797655
 C          2.4157298614       -3.4294813565        0.2149182093
 C          1.4223821189       -4.3431459751        0.5270919126
 C          0.0885978949       -3.9809041859        0.5120281385
 C         -0.2542495996       -2.6769101580        0.1659218441
 C          0.7396755307       -1.7787047774       -0.1791016209
 H          0.4592643971       -0.7776756894       -0.4718857247
 N         -1.5920298323       -2.2523868147        0.2089162747
 S         -2.0605492201       -0.7529225490       -0.3845694046
 O         -1.7852368288       -0.6510197220       -1.8015888883
 O         -1.5101098206        0.2800720171        0.4568144045
 C         -3.8192339239       -0.8720866151       -0.1213871341
 C         -4.3250671539       -0.5808453797        1.1311512582
 C         -5.6880806779       -0.7047920050        1.3491601081
 C         -6.5179947867       -1.1172568178        0.3171410441
 C         -5.9965937834       -1.4036455807       -0.9355492970
 C         -4.6342038991       -1.2816502249       -1.1597450251
 H         -4.1848277064       -1.4824544403       -2.1190043566
 H         -6.6444317089       -1.7202646448       -1.7369310921
 H         -7.5782976668       -1.2130208683        0.4896380889
 H         -6.0968337521       -0.4794450112        2.3209029662
 H         -3.6414030519       -0.2572805221        1.8990525478
 H         -2.2691786868       -2.9796919556        0.0324376057
 H         -0.6804786412       -4.6901361244        0.7751637761
 H          1.6938369921       -5.3528454893        0.7956084993
 H          3.4510448367       -3.7275078073        0.2478320402
 H          3.1411317690       -0.9782735972       -1.5822183521
 C          4.4976166821       -1.3901076239        0.0214705628
 C          5.4420354611       -2.2000496563       -0.8145199369
 C          5.6733960850       -0.7310272098       -0.6333544607
 H          6.4946244040       -0.4075000087       -0.0119459110
 H          5.4697244112       -0.0729644019       -1.4656937796
 H          6.1104212344       -2.8868113560       -0.3174646402
 H          5.0922043991       -2.5401455498       -1.7776682373
 H          4.5269338064       -1.5129676334        1.0980270786
