  62
        -98.94411230
 C          2.2456942933        0.8553495006        0.3750981372
 C          2.4669619002       -0.0097488120       -0.7239240898
 C          3.3263782395       -1.1727562143       -0.4573535588
 C          3.8010902312       -1.3721493481        0.7857135880
 C          4.7307295546       -2.4819018381        1.1812426719
 C          6.1978427892       -2.0490502677        1.0499233311
 C          6.5314303980       -1.3949674767       -0.2909290388
 H          5.9933529788       -0.4474285619       -0.3687947470
 H          7.5976740954       -1.1587924204       -0.2804006567
 C          6.2113452381       -2.2613129187       -1.5171315568
 H          7.0543435710       -2.2123497091       -2.2095371910
 H          6.1004180922       -3.3034612214       -1.2154715947
 C          4.9693234865       -1.8242019090       -2.2961242761
 H          4.9602785901       -2.3591696986       -3.2493912004
 H          5.0348644428       -0.7566572088       -2.5205705811
 C          3.6233352120       -2.0900571423       -1.6100656879
 H          2.8333263867       -1.9098767542       -2.3450444732
 H          3.5696867111       -3.1345971567       -1.2966252067
 H          6.8304833801       -2.9262994709        1.1968506970
 H          6.4197814149       -1.3330946264        1.8447648463
 H          4.5396099726       -3.3503309407        0.5538337016
 H          4.5303632968       -2.7449833186        2.2213559622
 O          3.5199145313       -0.5479313211        1.8285517196
 C          2.7472856506        0.5881283435        1.6478761085
 O          2.5715691085        1.2619395111        2.6847566069
 O          1.9749396672        0.1777277616       -1.8661923688
 C          1.4044212432        2.1050962131        0.1934422497
 C          0.0068630931        1.7433765526       -0.2504590747
 C         -0.6782424569        2.4305519720       -1.2437047290
 C         -1.9686707168        2.0649458891       -1.5868262559
 C         -2.6033207148        1.0146538040       -0.9504240667
 C         -1.9326386185        0.3285902821        0.0538772622
 C         -0.6425322137        0.7000949035        0.3982940787
 H         -0.1233301399        0.1666508810        1.1863798883
 N         -2.5694001686       -0.7447715952        0.7047064441
 S         -4.0732274340       -0.4509367820        1.3958699401
 O         -4.2104781399        0.9317836007        1.7918125034
 O         -4.2071373470       -1.4371373689        2.4460850897
 C         -5.2253721356       -0.8307606375        0.0929090910
 C         -6.1414438605        0.1186218029       -0.3157249518
 C         -7.0347296247       -0.2040098490       -1.3256320145
 C         -6.9967263040       -1.4632657692       -1.9045289322
 C         -6.0717198863       -2.4061011710       -1.4808760600
 C         -5.1766335718       -2.0905000919       -0.4712758206
 H         -4.4448355628       -2.7941520316       -0.1108213401
 H         -6.0448824291       -3.3842543741       -1.9334886146
 H         -7.6920269385       -1.7118512095       -2.6907079731
 H         -7.7545781836        0.5272699253       -1.6564347589
 H         -6.1296436946        1.0861755731        0.1601453776
 H         -1.9728703732       -1.2263726894        1.3620726514
 H         -3.6051601578        0.7226282799       -1.2197009392
 H         -2.4861729415        2.6045964238       -2.3651156626
 H         -0.2009004446        3.2519555605       -1.7520946664
 H          1.3288978704        2.5678581110        1.1892103732
 C          2.1044139621        3.0707173783       -0.7407408793
 C          1.9220068179        4.5488936562       -0.5782634767
 C          3.2239405932        3.9087992856       -0.2033312664
 H          4.0859922231        4.0826999890       -0.8296902001
 H          3.4613368473        3.8038869537        0.8458111841
 H          1.8935234293        5.1659675583       -1.4636304856
 H          1.2780366388        4.8891434924        0.2187362683
 H          2.2136984029        2.6726264958       -1.7428767837
