  62
        -98.93595885
 C          1.8659305346        1.3122494759        0.1690389656
 C          2.2514492654        0.2058687432       -0.6215213029
 C          3.6073986945       -0.3347899455       -0.3921583674
 C          4.4005737392        0.2389022340        0.5293241568
 C          5.8009459187       -0.1355597966        0.9445640993
 C          6.7890082773       -0.4826848793       -0.1795899358
 C          7.1492804318       -1.9683223393       -0.2361750723
 H          8.1203134157       -2.0741084749       -0.7250864499
 H          7.2575747850       -2.3384617444        0.7855203385
 C          6.1550043677       -2.8504571542       -0.9893252483
 H          6.2331343100       -2.6505538554       -2.0602481699
 H          6.4499511323       -3.8905616226       -0.8311858392
 C          4.6916500760       -2.6871603249       -0.5737901923
 H          4.6100657714       -2.5945010644        0.5087419770
 H          4.1609150287       -3.5995479661       -0.8548598004
 C          3.9871808782       -1.5057189484       -1.2577497643
 H          4.5918777907       -1.1448643061       -2.0946131221
 H          3.0433133688       -1.8461580870       -1.6945756146
 H          6.3928413529       -0.1513126458       -1.1380967764
 H          7.7074479123        0.0782156789        0.0010411545
 H          6.1675314564        0.7266175433        1.5064766955
 H          5.7408237261       -0.9647760847        1.6541337585
 O          3.9856063575        1.3005614833        1.2770258617
 C          2.7320791909        1.8558016648        1.1233954856
 O          2.5065598986        2.8236722130        1.8765016873
 H         -0.4055155894       -0.4866105572       -0.4880772213
 C         -0.9266091301       -0.0439476661        0.3476440277
 C         -0.5652236378        1.2251319554        0.7771099681
 C         -1.2375748740        1.7765715172        1.8611859561
 C         -2.2423011506        1.0716416029        2.5015737630
 C         -2.5975621778       -0.1944355291        2.0729502207
 C         -1.9282365060       -0.7544256059        0.9921940741
 N         -2.2915110916       -2.0372132134        0.5401953191
 S         -3.9204443171       -2.2774778836        0.2329663868
 O         -4.6047685386       -2.5685405660        1.4684761926
 O         -3.9777468506       -3.3107944576       -0.7769420588
 C         -4.4907600092       -0.7180754773       -0.4206511351
 C         -5.4170188526        0.0270418647        0.2796284564
 C         -5.8007551768        1.2608979830       -0.2211294131
 C         -5.2499129300        1.7276919368       -1.4041482922
 C         -4.3228268729        0.9650737155       -2.0978649771
 C         -3.9361378454       -0.2692154972       -1.6029674224
 H         -3.2188295928       -0.8864920796       -2.1200927331
 H         -3.8963604683        1.3281484453       -3.0191880088
 H         -5.5436883116        2.6912611022       -1.7894664067
 H         -6.5229309929        1.8552251431        0.3149501391
 H         -5.8164876576       -0.3722946469        1.1974751806
 H         -1.7267385230       -2.3599966026       -0.2324330636
 H         -3.3760870066       -0.7600960822        2.5590351883
 H         -2.7541850003        1.5122978437        3.3433028932
 H         -0.9584542179        2.7605090321        2.2089466906
 C          0.5133752214        2.0002701635        0.0585890449
 H          0.6330471575        2.9610627955        0.5762676127
 C          0.1025212096        2.2776709510       -1.3757029697
 C         -0.9335071551        3.3259486904       -1.6419817374
 C          0.4971373532        3.5737334999       -2.0139580554
 H          0.7697761056        3.5709979096       -3.0587238499
 H          1.0674140587        4.2714165022       -1.4176759060
 H         -1.6472305596        3.1545593964       -2.4325071637
 H         -1.3360490395        3.8576739661       -0.7934411363
 H          0.1025166397        1.3956563916       -2.0016907914
 O          1.5150544709       -0.3350397736       -1.4917454382
