  62
        -98.93326106
 C         -1.7127289304       -0.9527493802        0.7628372885
 C         -2.1659570004       -0.5377001893       -0.5127289012
 C         -3.0288964505        0.6598898207       -0.5405614203
 C         -3.2923858905        1.3206526598        0.5983805701
 C         -4.1062141706        2.5760320296        0.7876580810
 C         -5.4465179406        2.6681781901        0.0430168010
 C         -6.1647511305        1.3290761702       -0.1794478100
 H         -5.7010790705        0.5484507998        0.4261735295
 H         -7.2008239205        1.4242356999        0.1509834901
 C         -6.1804923804        0.8960625112       -1.6477539503
 H         -6.9893212604        0.1757042013       -1.7927254108
 H         -6.4057383805        1.7673858017       -2.2667348897
 C         -4.8961655004        0.2413806417       -2.1554169907
 H         -4.9962459203        0.0965785824       -3.2339102508
 H         -4.7848911503       -0.7507154286       -1.7092054114
 C         -3.6012038705        1.0232185616       -1.8807311401
 H         -2.8598767704        0.7153974622       -2.6233511803
 H         -3.7612281805        2.0947100016       -1.9737060393
 H         -6.0872241507        3.3303015596        0.6277871015
 H         -5.2952128106        3.1514256408       -0.9214419086
 H         -4.2809754307        2.6400555589        1.8641806610
 H         -3.4848058007        3.4322399799        0.5099576116
 O         -2.7889450106        0.9188756590        1.7991777798
 C         -2.0190062305       -0.2238957210        1.9155324491
 O         -1.6702700005       -0.4865322118        3.0832099889
 H          0.3204893797       -1.0604832487       -1.1372307515
 C          1.0353949597       -1.3411418192       -0.3778542416
 C          0.5855708297       -1.9508515900        0.7852729579
 C          1.5173081297       -2.3058906207        1.7534554877
 C          2.8669813796       -2.0726220304        1.5520831579
 C          3.3134839596       -1.4773552396        0.3860345883
 C          2.3874808897       -1.1044356890       -0.5803529314
 N          2.8252494096       -0.4805905081       -1.7601008410
 S          3.9876307696        0.7130165519       -1.6298217101
 O          3.7494673895        1.6034967727       -2.7437833895
 O          5.2958597896        0.1083112320       -1.5809006105
 C          3.6592440795        1.5424069108       -0.0828361395
 C          2.3937956594        2.0492407805        0.1379441608
 C          2.1250949293        2.6793548697        1.3420301713
 C          3.1222594393        2.7954064890        2.2986473214
 C          4.3893830893        2.2872439493        2.0594956011
 C          4.6621802694        1.6516610902        0.8588055606
 H          5.6307477095        1.2354071604        0.6339163803
 H          5.1623673993        2.3800937488        2.8051396611
 H          2.9061595592        3.2838144084        3.2356783817
 H          1.1375836793        3.0693839895        1.5320115315
 H          1.6357018294        1.9473329210       -0.6228510893
 H          2.0764265796       -0.2089598777       -2.3801512308
 H          4.3616218596       -1.3000837494        0.2068671285
 H          3.5798042196       -2.3577769909        2.3103549677
 H          1.1760107697       -2.7587683214        2.6726732774
 C         -0.8847006303       -2.2082418503        0.9914745377
 H         -1.0292483903       -2.4515235011        2.0557605975
 C         -1.3950158802       -3.3981116998        0.1872156668
 C         -0.6575194601       -4.0105273489       -0.9616178836
 C         -0.7437769001       -4.7405962198        0.3428003959
 H         -1.3705141801       -5.6169384299        0.4095201252
 H          0.1512716198       -4.7892779502        0.9446724259
 H         -1.2422132401       -4.3633705583       -1.7976240239
 H          0.2927761298       -3.5882348286       -1.2475140733
 H         -2.4779037902       -3.3926039398        0.1086880368
 O         -1.8713052903       -1.1122718185       -1.5927658716
