  62
        -98.93651941
 C         -2.5422064704       -0.1244388702        0.1373505603
 C         -2.4457223704        1.0316027699        0.9467818202
 C         -1.9464290405        2.2664955298        0.3139856701
 C         -1.6181367004        2.2338546297       -0.9905327699
 C         -1.0150567404        3.3243597596       -1.8357151400
 C          0.4844592096        3.4973302397       -1.5570718399
 C          0.8497103795        3.6044233699       -0.0789731599
 H          0.5868258595        2.6696767799        0.4220565602
 H          1.9380321995        3.6947345499       -0.0150662199
 C          0.2368166594        4.7896393099        0.6657056999
 H          0.5120383594        5.7134375199        0.1520605398
 H          0.6941721794        4.8110238500        1.6580401399
 C         -1.2839184406        4.7663304699        0.8506169198
 H         -1.7995713305        5.1138675298       -0.0409305302
 H         -1.5247348706        5.4782334000        1.6454031398
 C         -1.8497758805        3.4186238999        1.2847797700
 H         -1.2757030706        3.0452030500        2.1411259400
 H         -2.8677596106        3.5694759699        1.6643748399
 H          1.0046710697        2.6232550797       -1.9584196798
 H          0.8345487396        4.3840603997       -2.0893850800
 H         -1.1413306903        3.0181186295       -2.8766912900
 H         -1.5459048704        4.2607432496       -1.6942744401
 O         -1.7621193503        1.1076197396       -1.7437252298
 C         -2.1565150803       -0.1015606604       -1.2043079797
 O         -2.1421264902       -1.0459705204       -2.0168671696
 O         -2.7435369405        1.0324072700        2.1740420402
 C         -2.8585083904       -1.4437366902        0.8234569004
 C         -1.7418453703       -2.4047859902        0.4973801406
 C         -1.9177241502       -3.6730600902       -0.0366470293
 C         -0.8171287702       -4.4444746602       -0.3721888092
 C          0.4683658298       -3.9634709402       -0.2072982392
 C          0.6535437597       -2.6977597501        0.3393224607
 C         -0.4468222703       -1.9495438801        0.7143742106
 H         -0.2935154504       -0.9666669901        1.1375065805
 N          1.9403669397       -2.1586323300        0.5284343607
 S          2.1209159296       -0.4946102101        0.2703617306
 O          1.7219734496        0.2050482800        1.4667805905
 O          1.4723750097       -0.0981178202       -0.9580162095
 C          3.8935745496       -0.4038609300        0.0945065506
 C          4.6732910396       -0.4213550899        1.2355456807
 C          6.0527011096       -0.3977223798        1.1046661608
 C          6.6263837597       -0.3582309600       -0.1576602492
 C          5.8311043797       -0.3377166501       -1.2935147293
 C          4.4506040997       -0.3625595801       -1.1694053493
 H          3.7911170098       -0.3423244802       -2.0224836794
 H          6.2791369798       -0.3035026602       -2.2735009492
 H          7.7001347097       -0.3409496299       -0.2570671292
 H          6.6739641596       -0.4105324597        1.9855260808
 H          4.1809373495       -0.4441733198        2.1936753807
 H          2.6531513697       -2.6792058501        0.0344534708
 H          1.3212725098       -4.5547247602       -0.5045475491
 H         -0.9650337701       -5.4266038903       -0.7953439691
 H         -2.9121705302       -4.0455215903       -0.2206266093
 H         -2.7962011204       -1.2060391501        1.8997999304
 C         -4.2521398803       -2.0005585002        0.5877844904
 C         -5.3873451503       -1.0959863403        0.2140353402
 C         -4.8690850603       -2.0952390504       -0.7740856596
 H         -5.4820348402       -2.9567015504       -0.9962032896
 H         -4.2867849702       -1.7422163705       -1.6098334496
 H         -6.3523067304       -1.2672929503        0.6671078902
 H         -5.1574852404       -0.0526408003        0.0516502001
 H         -4.4881473103       -2.8005487902        1.2832495705
