  62
        -98.93868048
 C         -2.5710767309       -1.3727596865        0.1516351693
 C         -2.5408305236       -0.3076057179       -0.7777548116
 C         -3.5919153849        0.7185351996       -0.6373947932
 C         -4.5072333688        0.6037265962        0.3426977428
 C         -5.7069567423        1.4584327204        0.6950512270
 C         -5.8687244690        2.8588954520        0.1100343007
 C         -4.8346751069        3.8763745588        0.5914122695
 H         -4.9797868436        4.8028204388        0.0316461875
 H         -5.0240157097        4.0916173524        1.6459928690
 C         -3.3752782762        3.4449531410        0.4668486126
 H         -2.7511761935        4.2557684199        0.8525754383
 H         -3.1929752164        2.5738181131        1.0997456478
 C         -2.9017996312        3.1334648370       -0.9516606810
 H         -1.8174362702        2.9913699307       -0.9125032199
 H         -3.1023078273        3.9872001926       -1.6022770806
 C         -3.5116124200        1.8745828600       -1.5921926682
 H         -4.4857205536        2.0844002063       -2.0273874670
 H         -2.8504706834        1.5575325720       -2.4041770056
 H         -5.8835996665        2.8148090119       -0.9749075596
 H         -6.8529140707        3.2156772398        0.4255319389
 H         -6.5848817490        0.8646452340        0.4175517550
 H         -5.7133614119        1.5244731611        1.7875891629
 O         -4.4957084624       -0.4465293673        1.2152336205
 C         -3.5337794280       -1.4364994202        1.1596607355
 O         -3.6425338232       -2.3079238626        2.0449431977
 H          0.5287677428       -1.6577795993       -1.5100523054
 C          0.7334176791       -1.4818932892       -0.4661468126
 C         -0.1936228401       -1.8586453168        0.4916917423
 C          0.0826888758       -1.5898645114        1.8297945990
 C          1.2600473321       -0.9656535774        2.1950863522
 C          2.1824520301       -0.5864254672        1.2344905033
 C          1.9073443109       -0.8333180850       -0.1029861564
 N          2.8311374403       -0.4463202207       -1.0878798535
 S          3.5210260322        1.0798241014       -0.9905805119
 O          2.6529348023        2.0271668384       -0.3303863345
 O          3.9148127533        1.4020973812       -2.3450248465
 C          4.9881079261        0.8103497013       -0.0157613139
 C          5.8436234013       -0.2065757597       -0.3925233906
 C          6.9941991313       -0.4223305244        0.3488023195
 C          7.2708513905        0.3797026420        1.4460878023
 C          6.4042724934        1.3990954821        1.8091799327
 C          5.2508286473        1.6193795995        1.0722486019
 H          4.5448848833        2.3959043475        1.3212653324
 H          6.6206853386        2.0220448342        2.6622197294
 H          8.1668282479        0.2092257688        2.0218356862
 H          7.6703374221       -1.2143567353        0.0698177237
 H          5.5936237069       -0.8058783825       -1.2518953194
 H          2.5171082780       -0.6359757154       -2.0290159890
 H          3.0965811732       -0.0871470808        1.5113099744
 H          1.4624996424       -0.7678885152        3.2368554790
 H         -0.6482628625       -1.8663459234        2.5774872471
 C         -1.5228657831       -2.4742860020        0.1290886039
 H         -1.8045908874       -3.1719091517        0.9289627478
 C         -1.5200044351       -3.2203776820       -1.1884736496
 C         -0.8208060300       -4.5423986259       -1.2808878810
 C         -2.3176654838       -4.4818940860       -1.3145587996
 H         -2.8222663694       -4.6800564474       -2.2483591819
 H         -2.8642512024       -4.8157734256       -0.4446447926
 H         -0.2959505829       -4.7869024301       -2.1917270573
 H         -0.3490521850       -4.9182675608       -0.3857106389
 H         -1.4918621602       -2.5676442157       -2.0521618285
 O         -1.6895445099       -0.2101434076       -1.7013613438
