  62
        -98.94174776
 C         -1.7058471698       -0.4719453912       -0.2954283619
 C         -2.8223815805       -1.2903821409        0.0176060387
 C         -4.1407458991       -0.7521831425       -0.3331816804
 C         -4.2326494623        0.4595372602       -0.9095538085
 C         -5.5017678328        1.1363952597       -1.3514993475
 C         -6.2319129836        1.8875482823       -0.2297093845
 C         -6.9307764711        0.9992666726        0.8004425880
 H         -7.5778436394        1.6472367403        1.3950275800
 H         -7.5722333930        0.2834298430        0.2854199210
 C         -5.9771132903        0.2536732780        1.7444694152
 H         -6.3351580174        0.3475943829        2.7721921573
 H         -4.9896262877        0.7195607511        1.7061003410
 C         -5.8322292598       -1.2393843044        1.4499287791
 H         -5.1082636213       -1.6589347545        2.1529315330
 H         -6.7892392374       -1.7396671632        1.6135296097
 C         -5.3510772736       -1.5591935728        0.0285868531
 H         -5.0709492609       -2.6147697993       -0.0088673851
 H         -6.1528144455       -1.3841467051       -0.6885898837
 H         -6.9853425872        2.5232953560       -0.7006075748
 H         -5.5163850706        2.5399713530        0.2762705143
 H         -5.2173042889        1.8580713490       -2.1204156016
 H         -6.1733721365        0.4013911359       -1.7962720641
 O         -3.1418123162        1.2235188734       -1.1773119705
 C         -1.8558591077        0.7960227224       -0.8595037589
 O         -0.9736060305        1.6310206477       -1.1308258665
 H          1.9024833945        0.3740753114       -0.8026269964
 C          1.6038768798        0.6276244046        0.1999911214
 C          0.4831239181        0.0459530081        0.7697529572
 C          0.0938477515        0.4531100551        2.0436163306
 C          0.8040540548        1.4229154143        2.7233942349
 C          1.9320755151        1.9914504395        2.1574433506
 C          2.3272960005        1.5939251605        0.8863825833
 N          3.4648898997        2.1487808507        0.2864145312
 S          4.4246818732        1.2270316997       -0.7167181217
 O          5.7281845411        1.8532987298       -0.6387052693
 O          3.8559874305        1.1358079892       -2.0375490164
 C          4.4839896927       -0.3919475488        0.0338301681
 C          4.1557500359       -1.5022572693       -0.7164520507
 C          4.2001900100       -2.7532872441       -0.1215575136
 C          4.5681549059       -2.8711476846        1.2095015462
 C          4.9019119110       -1.7467819917        1.9489982338
 C          4.8623561385       -0.4945547759        1.3579638368
 H          5.1236747841        0.3961628120        1.9053707014
 H          5.1902786479       -1.8423559246        2.9833258850
 H          4.5956336829       -3.8452070380        1.6718136455
 H          3.9433489219       -3.6287889411       -0.6967733574
 H          3.8677443685       -1.3641147115       -1.7465563224
 H          3.9993070578        2.7792323906        0.8645053167
 H          2.4913143570        2.7476839644        2.6868910637
 H          0.4843381218        1.7347875330        3.7062639453
 H         -0.7846925777        0.0056745184        2.4882708037
 C         -0.3305491655       -1.0065217810        0.0625084696
 H         -0.5355497273       -1.8162329688        0.7828185450
 C          0.4164237587       -1.6436200576       -1.0992612455
 C         -0.3150580814       -2.3449912382       -2.2029935490
 C          0.4078658858       -1.0623744471       -2.4798808100
 H          1.3211697065       -1.0925467621       -3.0570862864
 H         -0.1708493487       -0.1666233115       -2.6441362596
 H         -1.3949312178       -2.3254404334       -2.1798328535
 H          0.0974541893       -3.2640939565       -2.5907561923
 H          1.3464111967       -2.0991537805       -0.7718982059
 O         -2.7201015978       -2.4189760085        0.5667812635
