  62
        -98.94330415
 C         -2.5120265452        1.0476742413        0.1511583445
 C         -3.6516912054        0.8785808982       -0.6716826384
 C         -4.6895436009       -0.0169030963       -0.1498960938
 C         -4.5239570059       -0.6018508960        1.0505885953
 C         -5.5018557076       -1.5238294150        1.7272185813
 C         -5.3950789661       -2.9868364440        1.2754099116
 C         -5.9247090896       -3.2741988465       -0.1300694527
 H         -5.9899641610       -4.3592798442       -0.2319772089
 H         -6.9359836466       -2.8773270710       -0.2244252528
 C         -5.0460209438       -2.7246521669       -1.2625111236
 H         -4.0530525197       -2.4899026965       -0.8718850891
 H         -4.9147951307       -3.4932594141       -2.0275225460
 C         -5.6102604577       -1.4856596045       -1.9579977896
 H         -4.8925205135       -1.1608706945       -2.7157304238
 H         -6.5420976606       -1.7428795301       -2.4664632020
 C         -5.8767805874       -0.3011618790       -1.0197459206
 H         -6.0613407706        0.5857366763       -1.6309133009
 H         -6.7586966705       -0.4952536661       -0.4098008895
 H         -4.3496771159       -3.2969512096        1.3414912273
 H         -5.9661647061       -3.5892755181        1.9855672652
 H         -5.2837103365       -1.4772317452        2.7962695247
 H         -6.5181510086       -1.1642992961        1.5638513664
 O         -3.4207937899       -0.3995150577        1.8188315392
 C         -2.3799011157        0.4084966258        1.3837804743
 O         -1.4217557217        0.4789745527        2.1764534024
 O         -3.7932867086        1.4480323613       -1.7869837524
 C         -1.3854687786        1.9412524254       -0.3370245993
 C         -0.1323928530        1.1185708077       -0.5065744845
 C         -0.1544052200        0.0522538350       -1.4028811180
 C          0.9606954296       -0.7412825601       -1.5859287563
 C          2.1240847096       -0.4926472414       -0.8774738619
 C          2.1604868790        0.5714675451        0.0116743338
 C          1.0384985941        1.3734984356        0.1876513836
 H          1.0831208809        2.1937964573        0.8868155867
 N          3.3313440552        0.8223470009        0.7436861602
 S          4.8086607580        0.8245508637       -0.0464311312
 O          5.6755888585        1.6365005123        0.7793840017
 O          4.6717107866        1.2324562263       -1.4254525988
 C          5.3480912326       -0.8701085194        0.0390276581
 C          5.7311081712       -1.5290655308       -1.1127027036
 C          6.1603155854       -2.8440587111       -1.0215670795
 C          6.1998082463       -3.4728536670        0.2133812795
 C          5.8143508016       -2.7961166697        1.3611332550
 C          5.3850969005       -1.4813155864        1.2769399055
 H          5.0786697472       -0.9217750198        2.1450344553
 H          5.8457713432       -3.2885513511        2.3197506649
 H          6.5332203665       -4.4963143390        0.2822073124
 H          6.4606376601       -3.3718200038       -1.9125158203
 H          5.6782036136       -1.0019178207       -2.0520565288
 H          3.2565055278        1.5937082659        1.3902701024
 H          2.9965821070       -1.1109007214       -1.0112174289
 H          0.9260099106       -1.5645262225       -2.2834222857
 H         -1.0643273168       -0.1445409757       -1.9535477554
 H         -1.7005036021        2.2882014040       -1.3320228967
 C         -1.2214791918        3.1444756067        0.5662629569
 C         -0.5620697079        4.3858488166        0.0457554034
 C         -2.0390916768        4.3707940836        0.2983346518
 H         -2.4248714561        4.9269034323        1.1395248734
 H         -2.7045713005        4.3485989855       -0.5521184150
 H          0.0661899836        4.9570282018        0.7128394176
 H         -0.2211395198        4.3776019648       -0.9786552833
 H         -1.0574911359        2.8729979318        1.6031049241
