  62
        -98.93513954
 C         -1.6935953090       -0.0685128506        0.4193391305
 C         -2.8338628591       -0.7277034913        0.9450737696
 C         -4.1371039790       -0.0819058509        0.7193586505
 C         -4.1822230990        1.1001927800        0.0826897822
 C         -5.3868931589        1.9525739405       -0.2284495566
 C         -6.6424498390        1.2388271213       -0.7488435376
 C         -6.3749489690       -0.0088354075       -1.6035466494
 H         -6.9404646790        0.0712191438       -2.5338561192
 H         -5.3178643690       -0.0611899672       -1.8702604094
 C         -6.7934204491       -1.3083332585       -0.9110765512
 H         -7.7612905291       -1.1514223791       -0.4299489310
 H         -6.9279044092       -2.0827092974       -1.6702505923
 C         -5.8050716391       -1.8525596300        0.1198741780
 H         -4.9138460992       -2.2333672993       -0.3865973925
 H         -6.2751677692       -2.7026556007        0.6199607768
 C         -5.3407518391       -0.8482056315        1.1871275894
 H         -5.0152776791       -1.4157326328        2.0631691086
 H         -6.1499854290       -0.1852248219        1.4832149104
 H         -7.1990726089        1.9701284221       -1.3373981465
 H         -7.2789974790        0.9628409201        0.0907143120
 H         -5.6441449489        2.5194050392        0.6710427542
 H         -5.0394163989        2.6729014815       -0.9730545456
 O         -3.0564709589        1.7290082305       -0.3561964369
 C         -1.7910138890        1.1727410503       -0.2095318977
 O         -0.8788439289        1.8834715009       -0.6697898267
 O         -2.7654444891       -1.8088242622        1.5872631181
 C         -0.3476481291       -0.7436512010        0.6129299996
 C          0.6801484510        0.2430811183        1.1015755810
 C          0.5695261610        0.7448181064        2.3959869917
 C          1.4827385111        1.6617922157        2.8782909230
 C          2.5381395411        2.0821083568        2.0876440236
 C          2.6550010911        1.5902264586        0.7935011029
 C          1.7298659810        0.6758725693        0.3078037416
 H          1.8137261610        0.3480118408       -0.7140853989
 N          3.7105831211        1.9982888997       -0.0310717566
 S          4.3619556310        0.9609616813       -1.1595297080
 O          5.7100465710        1.4517390515       -1.3579382174
 O          3.5421493010        0.8987168430       -2.3429784781
 C          4.4110173209       -0.6394776998       -0.3693280703
 C          5.0094990509       -0.7501020216        0.8702119595
 C          5.0448857209       -1.9888013925        1.4894498678
 C          4.4884051208       -3.0922737316        0.8608892262
 C          3.9000762708       -2.9675242698       -0.3878737636
 C          3.8587211709       -1.7296003489       -1.0096949119
 H          3.4034269209       -1.5852366475       -1.9766160117
 H          3.4696481208       -3.8268693591       -0.8773198848
 H          4.5136177108       -4.0553539723        1.3457174848
 H          5.5037813209       -2.0899809839        2.4596492976
 H          5.4403475910        0.1234624777        1.3311862808
 H          4.4026551411        2.5896510391        0.4029218743
 H          3.2546858611        2.7973643862        2.4617046146
 H          1.3790977111        2.0485214043        3.8808502435
 H         -0.2536630690        0.4145620056        3.0146907812
 H         -0.5257351091       -1.4752285021        1.4186676685
 C          0.1292208709       -1.5374855793       -0.5941936516
 C         -0.8442080192       -2.2276105280       -1.5005381425
 C         -0.0568098891       -1.0552420873       -2.0001250109
 H          0.7369065509       -1.2269722363       -2.7131939011
 H         -0.5638346491       -0.1138129471       -2.1458348795
 H         -0.5970207592       -3.2113476474       -1.8697471939
 H         -1.8970299791       -2.0863518182       -1.3037044023
 H          1.0524873009       -2.0689203396       -0.3829283723
