  62
        -98.93656032
 C         -1.4078821811       -1.0012226708       -0.2971775351
 C         -2.7603190203       -1.4035235826       -0.4073700577
 C         -3.7840170080       -0.3395354276       -0.4156052273
 C         -3.3853017587        0.9390452378       -0.2844213509
 C         -4.2347262161        2.1811465088       -0.2293151322
 C         -4.9380370210        2.3594867700        1.1256831112
 C         -5.5726431962        1.0921581949        1.6920169115
 H         -4.8046808315        0.3241498101        1.8006651099
 H         -5.9418319052        1.3249090439        2.6943843062
 C         -6.7402271048        0.5315658521        0.8835151441
 H         -7.5199086485        1.2925232072        0.8043916354
 H         -7.1529453708       -0.3078619777        1.4490968631
 C         -6.4020041801        0.0334538894       -0.5233349211
 H         -6.2945326416        0.8617761620       -1.2185724935
 H         -7.2546858943       -0.5557631356       -0.8735484446
 C         -5.1819979209       -0.8791932794       -0.5997114529
 H         -5.2927057242       -1.6888073755        0.1308261127
 H         -5.1796735899       -1.3756985205       -1.5780004600
 H         -5.6994119790        3.1341550077        1.0198900207
 H         -4.1966783975        2.7105805770        1.8474926555
 H         -4.9551438743        2.1777285450       -1.0419445488
 H         -3.5616494681        3.0270940138       -0.3843652342
 O         -2.0741518607        1.2772208341       -0.1324256961
 C         -1.0538670123        0.3385619153       -0.1295729401
 O          0.0784140390        0.8251926168        0.0308700316
 O         -3.1111368286       -2.6120490215       -0.4908027751
 C         -0.3428937134       -2.0828290517       -0.3131790531
 C          0.6713344802       -1.8280984043        0.7714454007
 C          0.2759645036       -1.9451537261        2.1014429936
 C          1.1638946664       -1.6872609156        3.1274126991
 C          2.4632902963       -1.3019392516        2.8485719735
 C          2.8686148445       -1.1859914540        1.5243448795
 C          1.9773940666       -1.4566352946        0.4955805435
 H          2.3143225142       -1.3518505633       -0.5213426408
 N          4.1851772355       -0.8184208482        1.2178811618
 S          4.5776350620        0.0141981367       -0.1714976910
 O          4.4772130263       -0.8560115399       -1.3173375542
 O          5.9041670055        0.5296089503        0.1021937735
 C          3.4434440726        1.3803697823       -0.3245208681
 C          3.2568220095        2.2126075999        0.7597932592
 C          2.4131687268        3.3020662986        0.6287673483
 C          1.7786533482        3.5434299779       -0.5789535764
 C          1.9810571348        2.7013982925       -1.6591591858
 C          2.8204457457        1.6076535634       -1.5324125896
 H          2.9954879405        0.9214471031       -2.3457101389
 H          1.4795207895        2.8854640617       -2.5964785090
 H          1.1151058558        4.3885120707       -0.6767237157
 H          2.2463443239        3.9561844692        1.4698805402
 H          3.7658838712        2.0043004626        1.6871425614
 H          4.7475968239       -0.5287823602        2.0036624333
 H          3.1579053710       -1.0926291347        3.6477475299
 H          0.8420555225       -1.7793055991        4.1538781480
 H         -0.7439044648       -2.2321840183        2.3194695069
 H         -0.8853720638       -3.0108956462       -0.0665677619
 C          0.2933002397       -2.2998866234       -1.6779320413
 C         -0.4969301777       -2.1169541618       -2.9377976415
 C          0.6116183325       -1.1663317973       -2.6041892747
 H          1.5272229458       -1.2206377970       -3.1758742231
 H          0.3573725277       -0.1691253154       -2.2795549367
 H         -0.3496295785       -2.8206754334       -3.7432399904
 H         -1.5147488413       -1.7679479395       -2.8426445047
 H          0.9973208881       -3.1270776190       -1.6683523256
