  62
        -98.94304375
 C         -1.9377025854       -0.0514003342       -0.2971251523
 C         -2.8154420604        0.7124377633        0.5111450707
 C         -4.1251282076        0.1030779658        0.7824467097
 C         -4.4108619862       -1.1238807313        0.3133017160
 C         -5.6892670501       -1.8852934775        0.5360147051
 C         -6.8116119119       -1.5203032569       -0.4453149353
 C         -7.4530257907       -0.1504462793       -0.2200373296
 H         -8.3575548868       -0.1166295356       -0.8306423564
 H         -7.7606937378       -0.0619757156        0.8223562451
 C         -6.5578183128        1.0380061941       -0.5978117008
 H         -5.7426537051        0.6909446264       -1.2370390406
 H         -7.1362877646        1.7583355239       -1.1807147370
 C         -5.9661014304        1.7902622969        0.5942154502
 H         -6.7698459282        2.2552569448        1.1693134719
 H         -5.3217372681        2.5853998933        0.2111050722
 C         -5.1305290008        0.9175500310        1.5397271569
 H         -4.5825046806        1.5746668437        2.2190815303
 H         -5.7805481410        0.2698429589        2.1272804528
 H         -6.4171049837       -1.5755711445       -1.4626702976
 H         -7.5887423398       -2.2821291277       -0.3491279582
 H         -5.4474189217       -2.9423253884        0.4050229468
 H         -6.0343086805       -1.7321738336        1.5589596142
 O         -3.5271186908       -1.8432031448       -0.4289714722
 C         -2.2924644550       -1.3188427472       -0.7696974784
 O         -1.6048402981       -2.0694425826       -1.4925760656
 H          1.5505343236       -1.2596211046       -0.7206001231
 C          1.4754115490       -0.7091997147        0.2055257440
 C          0.4478671883        0.2045242125        0.3913402983
 C          0.3657212789        0.8826926233        1.6038774797
 C          1.2907528154        0.6441616362        2.6029136713
 C          2.3241198495       -0.2560351461        2.4081439837
 C          2.4156561365       -0.9381607172        1.2015833725
 N          3.4561025355       -1.8594042668        0.9712147329
 S          4.4350653830       -1.6338919435       -0.3679560033
 O          3.6773901565       -1.8334004805       -1.5759503236
 O          5.5605102643       -2.5169602510       -0.1588691014
 C          4.9626501500        0.0652571016       -0.2379249466
 C          4.1473344917        1.0626002618       -0.7346748172
 C          4.5212726034        2.3846615628       -0.5534499307
 C          5.6982322875        2.6852120668        0.1147680685
 C          6.5091442604        1.6718859361        0.6033920224
 C          6.1367008910        0.3484091265        0.4326058575
 H          6.7376144189       -0.4710579134        0.7926571222
 H          7.4258662492        1.9087065300        1.1189920382
 H          5.9847054304        3.7156745646        0.2538118590
 H          3.8885838180        3.1709305908       -0.9326818483
 H          3.2409063599        0.7925335817       -1.2509802714
 H          4.0305060365       -2.0336452191        1.7842293074
 H          3.0493003684       -0.4377338578        3.1870834777
 H          1.2114209014        1.1705299441        3.5418632669
 H         -0.4426520061        1.5797027335        1.7609893086
 C         -0.5564165174        0.4327193846       -0.7130816129
 H         -0.2658102370       -0.2032972587       -1.5607941094
 C         -0.5479913458        1.8767334173       -1.1756739850
 C          0.4998780244        2.3231532184       -2.1482226032
 C         -0.9262895977        2.1902912737       -2.5903136755
 H         -1.4954087427        3.0867700606       -2.7852419915
 H         -1.1853850934        1.3611834094       -3.2335781177
 H          0.9128909232        3.3143370296       -2.0424942078
 H          1.2044963103        1.5848827598       -2.5025917045
 H         -0.8624874990        2.5770189850       -0.4138793737
 O         -2.5459728864        1.8426316538        0.9944472477
