  62
        -98.93686587
 C          2.4657609921        0.8237637501        0.4639007306
 C          2.5804368477       -0.3287425844       -0.3464968032
 C          3.7654359866       -1.1741860856       -0.1107640374
 C          4.6367596162       -0.8267464534        0.8522473218
 C          5.9247836783       -1.5142090388        1.2119611187
 C          7.1078486135       -0.8717051496        0.4680214226
 C          7.3805600622       -1.4428063161       -0.9230263081
 H          8.1460524432       -0.8163863854       -1.3868435800
 H          7.7966292833       -2.4474721808       -0.8227809826
 C          6.1672739517       -1.5072324081       -1.8546350651
 H          5.5890986293       -0.5851836303       -1.7707179589
 H          6.5364343211       -1.5643660902       -2.8805654460
 C          5.2623193784       -2.7187468559       -1.5848212713
 H          5.7878321040       -3.4161578357       -0.9326692393
 H          5.0804324664       -3.2488992349       -2.5219447170
 C          3.8852683004       -2.3909525904       -0.9871526997
 H          3.5219611323       -3.2602243176       -0.4291170863
 H          3.1680917658       -2.2190619282       -1.7959602145
 H          8.0107504112       -0.9991387043        1.0686671412
 H          6.9137008063        0.2014833949        0.3943773475
 H          6.0676701162       -1.3670252630        2.2844975313
 H          5.8636127972       -2.5791923451        1.0090747362
 O          4.4738676938        0.2822286941        1.6261656247
 C          3.3998136759        1.1337161549        1.4515704882
 O          3.3825098193        2.1122984523        2.2258582457
 O          1.7413752916       -0.6360386196       -1.2334758777
 C          1.2951920177        1.7715593661        0.2758683406
 C         -0.0078388611        1.0431848014        0.5000346573
 C         -0.1777473354        0.3245095258        1.6808163624
 C         -1.3597245696       -0.3411074764        1.9403475353
 C         -2.4015361099       -0.3056667038        1.0293217401
 C         -2.2472320642        0.4144750015       -0.1460665902
 C         -1.0579565059        1.0867485795       -0.4024375346
 H         -0.9564070701        1.6420592032       -1.3219050320
 N         -3.2999498139        0.4517006866       -1.0758810885
 S         -4.8332165894        0.8599311261       -0.5304638599
 O         -5.5179056610        1.3877472625       -1.6905335077
 O         -4.7695030327        1.7243476360        0.6252375585
 C         -5.5682435393       -0.6998834300       -0.0869573350
 C         -5.6006435228       -1.7009279671       -1.0379570292
 C         -6.1862952747       -2.9138033975       -0.7124646977
 C         -6.7297596833       -3.1030778860        0.5495769116
 C         -6.6915766425       -2.0872356563        1.4922857655
 C         -6.1058204598       -0.8719351420        1.1734933490
 H         -6.0486334626       -0.0556548506        1.8759290508
 H         -7.1145219211       -2.2362875338        2.4728080608
 H         -7.1857480189       -4.0479999338        0.7997739113
 H         -6.2173277279       -3.7065357291       -1.4425251027
 H         -5.1706878198       -1.5136092533       -2.0077355981
 H         -3.0759910734        0.9451531875       -1.9279130967
 H         -3.3254411012       -0.8255652133        1.2237123376
 H         -1.4725994319       -0.8952227392        2.8599439789
 H          0.6355262643        0.2971507724        2.3938549582
 H          1.3926133901        2.5322321986        1.0645709481
 C          1.3932248987        2.4555966627       -1.0718167231
 C          0.7803458590        3.8074549657       -1.2777348758
 C          2.2703149095        3.6622837757       -1.2073764017
 H          2.8443832294        3.7842699396       -2.1136400608
 H          2.7785731048        4.0079625998       -0.3188256633
 H          0.3338487828        4.0335225700       -2.2347140649
 H          0.2739373408        4.2602853392       -0.4384146425
 H          1.3787939222        1.7537033608       -1.8979246531
