  62
        -98.93737119
 C         -2.2840766321       -0.6784066665        0.1334336393
 C         -3.5415448401       -1.0365675574        0.6842829994
 C         -4.7251201510       -0.5914913588       -0.0586269445
 C         -4.5715741754        0.1206549255       -1.1893626341
 C         -5.6778820777        0.6243777269       -2.0761754298
 C         -6.2910389167        1.9538993350       -1.6154546384
 C         -7.1749338929        1.8658740139       -0.3706873194
 H         -7.9212852386        1.0833756834       -0.5109691253
 H         -7.7088225006        2.8147418706       -0.2894322013
 C         -6.4065037374        1.6190651582        0.9351404934
 H         -6.7724604484        2.2992266559        1.7075825364
 H         -5.3487465312        1.8469136667        0.7837613198
 C         -6.5324733167        0.1987139675        1.4862857902
 H         -7.5702211585        0.0046580334        1.7661928702
 H         -5.9207584119        0.1254029084        2.3890847448
 C         -6.0753269037       -0.8982324716        0.5157866667
 H         -6.8075591402       -1.0247157236       -0.2813735758
 H         -5.9953302929       -1.8359051307        1.0712367388
 H         -6.8981238207        2.3350878011       -2.4397592779
 H         -5.4832195396        2.6679925462       -1.4395960189
 H         -6.4596821965       -0.1319720059       -2.1513529718
 H         -5.2393841228        0.7718357350       -3.0654516583
 O         -3.3497174576        0.4607030239       -1.6766532180
 C         -2.1775076293        0.0964634804       -1.0225819315
 O         -1.1460934639        0.5230920183       -1.5735051795
 O         -3.6676982714       -1.6966885257        1.7498787734
 C         -1.0409114007       -1.1190616678        0.8840349719
 C         -0.0711886881        0.0260800377        1.0273898888
 C         -0.4593810129        1.1432898347        1.7634488348
 C          0.3952893994        2.2157604994        1.9248347264
 C          1.6643427402        2.1895113396        1.3732707335
 C          2.0588499245        1.0828308237        0.6319720541
 C          1.1923819764        0.0119863093        0.4608065354
 H          1.5189807990       -0.8225152109       -0.1368541781
 N          3.3294213722        1.0338559710        0.0373701857
 S          4.1187966643       -0.4542446178       -0.0462063753
 O          3.6997731249       -1.1499900869       -1.2367093695
 O          3.9578520159       -1.1699326218        1.2001188613
 C          5.8084244230        0.0868685398       -0.2326180400
 C          6.6336680503        0.1323689375        0.8751679048
 C          7.9361002268        0.5816019090        0.7229002822
 C          8.3876185715        0.9790605771       -0.5265754921
 C          7.5477482170        0.9274331830       -1.6293625339
 C          6.2449472341        0.4778142428       -1.4845725310
 H          5.5591626815        0.4115071336       -2.3132505387
 H          7.9029727638        1.2344569204       -2.5998288412
 H          9.4014097889        1.3283646984       -0.6425800973
 H          8.5923801234        0.6196003260        1.5773385924
 H          6.2412365545       -0.1942298166        1.8247423356
 H          3.9438853070        1.7724610420        0.3504987018
 H          2.3366468953        3.0239928499        1.5038329048
 H          0.0767466020        3.0765214878        2.4936962895
 H         -1.4483676078        1.1598740642        2.2020115834
 H         -1.4078323808       -1.3764555643        1.8927252507
 C         -0.3916673076       -2.3780710580        0.3297712248
 C         -1.2067598462       -3.4433729957       -0.3382421230
 C         -0.2410896026       -2.6257019378       -1.1399382759
 H          0.6714758889       -3.0894723100       -1.4867924178
 H         -0.6293418467       -1.8796285488       -1.8156331293
 H         -0.9660220320       -4.4762318710       -0.1364569393
 H         -2.2628027901       -3.2561361540       -0.4681724358
 H          0.4239365818       -2.7210840287        0.9611925934
