  62
        -98.94185748
 C         -1.7177337725       -0.1266312613        0.4451011679
 C         -2.8266738973       -0.8540157888        0.9504047743
 C         -4.1403882198       -0.2189171611        0.8018473506
 C         -4.2271337722        1.0125297316        0.2683381661
 C         -5.4911505399        1.8036798676        0.0675707261
 C         -6.2448846010        1.4564399775       -1.2236350464
 C         -6.9573165955        0.1031931724       -1.2175600254
 H         -7.5857940177        0.0290103727       -0.3295583546
 H         -7.6180050336        0.0856649002       -2.0866282745
 C         -6.0173574340       -1.1084953667       -1.2883180300
 H         -6.3936789242       -1.8189059491       -2.0278919803
 H         -5.0316710344       -0.7841975611       -1.6307147864
 C         -5.8602379555       -1.8668590655        0.0298790099
 H         -6.8176780521       -2.3087647822        0.3142049744
 H         -5.1471054375       -2.6805402804       -0.1258159650
 C         -5.3524825396       -1.0078646672        1.1954411172
 H         -5.0647166323       -1.6735235678        2.0127784518
 H         -6.1422613633       -0.3437179960        1.5456088138
 H         -6.9930347172        2.2363326752       -1.3836719455
 H         -5.5420970008        1.4948493517       -2.0593855856
 H         -6.1511171353        1.6644310974        0.9243334351
 H         -5.1960906451        2.8542766011        0.0223784674
 O         -3.1340395234        1.7082131025       -0.1399819185
 C         -1.8567733718        1.1579369768       -0.0829880029
 O         -0.9695775927        1.9156687344       -0.5165856897
 O         -2.7212055556       -1.9796352157        1.5050320308
 C         -0.3525848253       -0.7831234557        0.5465783715
 C          0.6708586729        0.1883681477        1.0737782433
 C          0.5651327661        0.6257711305        2.3918823022
 C          1.4738385057        1.5257732590        2.9126134031
 C          2.5215825560        1.9919881655        2.1374200228
 C          2.6347502034        1.5629666770        0.8210787635
 C          1.7129509174        0.6667349473        0.2965264811
 H          1.7955243319        0.3887529575       -0.7400884147
 N          3.6838260038        2.0153469088        0.0103690146
 S          4.3535032124        1.0120860356       -1.1396227098
 O          5.6958137306        1.5237983536       -1.3228620027
 O          3.5372178002        0.9666921654       -2.3262477560
 C          4.4189962222       -0.6042047297       -0.3834415632
 C          5.0341380530       -0.7350811201        0.8459747796
 C          5.0825642000       -1.9845755881        1.4421153812
 C          4.5212149584       -3.0784755320        0.8013024531
 C          3.9155220673       -2.9331884756       -0.4368587042
 C          3.8617367913       -1.6845221166       -1.0359796430
 H          3.3941381006       -1.5251597678       -1.9946744457
 H          3.4816891333       -3.7853478122       -0.9358052172
 H          4.5563894528       -4.0501416291        1.2681237832
 H          5.5551450791       -2.1013190530        2.4039569022
 H          5.4688530248        0.1315145967        1.3163953884
 H          4.3715799998        2.5927144654        0.4696930691
 H          3.2348230244        2.6941213677        2.5415156545
 H          1.3729585574        1.8629264245        3.9331960498
 H         -0.2514150708        0.2590695557        2.9988276771
 H         -0.4894843674       -1.5739450695        1.3030985346
 C          0.0991799060       -1.4789972093       -0.7285503220
 C         -0.8904346948       -2.0992947278       -1.6673107770
 C         -0.1168689350       -0.8872227951       -2.0877242292
 H          0.6632927034       -0.9970921951       -2.8276082950
 H         -0.6296426820        0.0605009999       -2.1464147557
 H         -0.6469135058       -3.0494537551       -2.1180921758
 H         -1.9397880029       -1.9799201724       -1.4396084007
 H          1.0277190544       -2.0220407229       -0.5790733275
