  62
        -98.93610813
 C         -2.3114441875       -1.0660701705        0.1486235250
 C         -3.5586332384       -0.9369010315        0.8118437691
 C         -4.5500606754       -0.0280682226        0.2118610320
 C         -4.2209845364        0.6661765422       -0.8928760631
 C         -5.0229784221        1.6302211711       -1.7419838899
 C         -6.3376390485        2.2137571515       -1.2308566423
 C         -6.1953779682        3.1709960965       -0.0479639746
 H         -5.7033358661        4.0825787067       -0.3965883244
 H         -7.1964894749        3.4431644128        0.2933780145
 C         -5.3931705175        2.6402367247        1.1375909062
 H         -4.3611235964        2.4579789690        0.8301100726
 H         -5.3666754493        3.4234254358        1.9001657049
 C         -5.9488100751        1.3758102247        1.7898534862
 H         -5.3796132140        1.2017446895        2.7068734313
 H         -6.9921855061        1.5343601954        2.0690253755
 C         -5.8574449603        0.0965460002        0.9401830697
 H         -5.9150626479       -0.7612376930        1.6164979533
 H         -6.6911898550        0.0219818181        0.2460823233
 H         -7.0366923637        1.4168300312       -0.9948863967
 H         -6.7701979329        2.7783245001       -2.0613781996
 H         -4.3385446676        2.4485389715       -1.9880292740
 H         -5.2206505613        1.1028909757       -2.6820150949
 O         -2.9955963447        0.5373841768       -1.4783376038
 C         -2.0142078895       -0.3141906163       -0.9880313009
 O         -0.9644520435       -0.2944331886       -1.6580372226
 H          0.9342476591       -2.0471426474       -0.8167360915
 C          1.0550865277       -1.4047357881        0.0415421404
 C          0.0203685528       -1.2797007337        0.9541659740
 C          0.1829858111       -0.4173400723        2.0342392982
 C          1.3560775813        0.2951163583        2.1970079973
 C          2.3854289248        0.1725554652        1.2798624990
 C          2.2230600718       -0.6675742877        0.1869841700
 N          3.2542185534       -0.7901491632       -0.7586290168
 S          4.0583615852        0.5902632205       -1.2705164650
 O          3.2299489763        1.7708729036       -1.1943921383
 O          4.5852477505        0.2547176935       -2.5759086963
 C          5.4173797172        0.7244868236       -0.1245452547
 C          6.2258747854       -0.3798771131        0.0615281612
 C          7.2933093931       -0.2879697458        0.9402070363
 C          7.5359726503        0.9008653187        1.6121170334
 C          6.7179193153        2.0019896267        1.4118378282
 C          5.6476789026        1.9159508846        0.5347877874
 H          4.9821025348        2.7447149966        0.3513308494
 H          6.9078769857        2.9259443527        1.9341218067
 H          8.3673868820        0.9697578140        2.2957196590
 H          7.9317085586       -1.1422114994        1.0983589402
 H          6.0054416828       -1.2834028135       -0.4817438342
 H          3.0049959480       -1.3688117578       -1.5480413995
 H          3.2964434972        0.7374426602        1.3911065030
 H          1.4707054102        0.9565625906        3.0423730595
 H         -0.6281482774       -0.3048950533        2.7404682532
 C         -1.2893685523       -2.0014614758        0.7725381460
 H         -1.6997551761       -2.2203708250        1.7713664699
 C         -1.1356307065       -3.3411107029        0.0677771415
 C         -2.3364333314       -4.0531647440       -0.4775510697
 C         -1.2931836341       -3.5203115235       -1.4111872737
 H         -0.6444887938       -4.2267631878       -1.9091338488
 H         -1.5267995149       -2.6521314519       -2.0072729606
 H         -2.4112363415       -5.1213980490       -0.3415232805
 H         -3.2839022595       -3.5366937401       -0.4255944504
 H         -0.3852110414       -3.9601956846        0.5504674823
 O         -3.8401509852       -1.5660154629        1.8661432099
