  62
        -98.94366101
 C          2.6176225622        0.1720990342       -0.2450856005
 C          2.1765788868        0.9657922249        0.8430126351
 C          1.7120971713        2.3211744018        0.5031021631
 C          1.6919752097        2.7168308547       -0.7812767432
 C          1.2034678385        4.0510140818       -1.2661889949
 C         -0.2878140963        4.0125245835       -1.6242656411
 C         -1.1756011257        3.4045887600       -0.5376112163
 H         -0.9613055858        2.3363132224       -0.4497559239
 H         -2.2097697036        3.4887599093       -0.8810536023
 C         -1.0410430711        4.0660016544        0.8407762523
 H         -2.0404756793        4.2023879058        1.2592959906
 H         -0.5927421805        5.0554924910        0.7359936177
 C         -0.2437966033        3.2494950119        1.8598660339
 H         -0.6230183399        2.2243946011        1.8808070890
 H         -0.4137673039        3.6820036496        2.8501329860
 C          1.2735704785        3.2030950339        1.6383585031
 H          1.7258145069        2.7770965731        2.5390058567
 H          1.6582567804        4.2173686042        1.5063883353
 H         -0.4108714850        3.4180015558       -2.5324956386
 H         -0.6159320246        5.0326072102       -1.8349248582
 H          1.7738050334        4.3185367572       -2.1577606054
 H          1.3826556251        4.7973277517       -0.4943259319
 O          2.1031429605        1.9224350173       -1.8029445887
 C          2.5543979613        0.6381581346       -1.5609189926
 O          2.8919538449        0.0144072645       -2.5894374739
 O          2.1697121622        0.5912578626        2.0461215889
 C          3.0883509304       -1.2666753990       -0.1080116599
 C          1.9221462002       -2.2212390514       -0.2394413059
 C          2.0742516330       -3.4532256407       -0.8667085114
 C          0.9927290305       -4.3003583741       -1.0267791660
 C         -0.2676911273       -3.9224230619       -0.5989132009
 C         -0.4276135651       -2.6967233821        0.0356920359
 C          0.6698572804       -1.8739572808        0.2404747484
 H          0.5236912399       -0.9349755378        0.7516046229
 N         -1.6864907422       -2.2531145936        0.4727546307
 S         -2.0028295817       -0.5996616107        0.2783272608
 O         -1.3974412047       -0.1234435219       -0.9443696440
 O         -1.6419282794        0.0828533461        1.4939954210
 C         -3.7789747720       -0.6185923535        0.1168387655
 C         -4.5562400200       -0.6243323103        1.2595937685
 C         -5.9353408471       -0.6731876301        1.1308242324
 C         -6.5106516965       -0.7158824793       -0.1305469092
 C         -5.7176604154       -0.7069807458       -1.2683265089
 C         -4.3377521195       -0.6595582724       -1.1465212199
 H         -3.6803699925       -0.6407078113       -2.0012413226
 H         -6.1671462700       -0.7359639660       -2.2478041978
 H         -7.5840934156       -0.7531314590       -0.2279857002
 H         -6.5550276528       -0.6766051247        2.0128788729
 H         -4.0630391217       -0.5798174241        2.2166434895
 H         -2.4479438289       -2.8260101809        0.1347929442
 H         -1.1198941230       -4.5657183582       -0.7573186247
 H          1.1256274688       -5.2532960416       -1.5159263034
 H          3.0437016770       -3.7358450741       -1.2484021906
 H          3.7538770158       -1.4477265423       -0.9650310037
 C          3.8632141186       -1.5515124741        1.1637275508
 C          4.9183346933       -2.6150579466        1.1644689932
 C          5.3097765004       -1.1707476439        1.2440150606
 H          5.6861016660       -0.7816852361        2.1777467701
 H          5.7521955339       -0.7131655366        0.3708184600
 H          5.0275677728       -3.2267066411        2.0466367372
 H          5.1108243665       -3.1369088295        0.2396081029
 H          3.2688990785       -1.4292036201        2.0597445850
