  62
        -98.93904939
 C          2.3249665734        0.8212880111        0.6340519442
 C          3.4301074742        0.9670666700       -0.2403082430
 C          4.5950691475        0.1154636907        0.0481117188
 C          4.5626497969       -0.7248084774        1.0971784050
 C          5.6545064439       -1.6865308930        1.4646016542
 C          5.4427626758       -3.0509785677        0.7936627592
 C          5.1585765110       -2.9646570344       -0.7059678570
 H          5.0578435100       -3.9870462999       -1.0766501964
 H          4.1952299537       -2.4720791270       -0.8581705080
 C          6.2369512371       -2.2309412895       -1.5154562064
 H          7.1608655097       -2.1777811226       -0.9385039559
 H          6.4505555928       -2.8082963445       -2.4174050903
 C          5.8416894570       -0.8247067184       -1.9697613805
 H          6.5741620293       -0.4877841570       -2.7080582378
 H          4.8686257757       -0.8600855181       -2.4660114246
 C          5.7810995889        0.2397961747       -0.8671031942
 H          5.6839258351        1.2152534424       -1.3521853390
 H          6.7108386838        0.2313133556       -0.2950402345
 H          6.3323240469       -3.6603787599        0.9631785483
 H          4.5951864565       -3.5449409988        1.2745613114
 H          5.6450539944       -1.8186745275        2.5478250011
 H          6.6143909425       -1.2686647008        1.1675290820
 O          3.4926838910       -0.8253846219        1.9270828174
 C          2.3558255822       -0.0669756896        1.7140545774
 O          1.4516910176       -0.2627545178        2.5525215852
 O          3.4696779036        1.7610068022       -1.2169059992
 C          1.0327045035        1.6080280935        0.4801400171
 C          0.1524218053        1.0178692558       -0.5963343695
 C          0.5061613131        1.0680590266       -1.9410024808
 C         -0.3343124172        0.5406300696       -2.9039526598
 C         -1.5457095014       -0.0273751710       -2.5511959508
 C         -1.9028746403       -0.0926165252       -1.2094109769
 C         -1.0499736246        0.4223647850       -0.2432209270
 H         -1.3352844362        0.3563287890        0.7970808852
 N         -3.1132186561       -0.6870668012       -0.8181604555
 S         -3.9239194681       -0.0557744673        0.5209643062
 O         -3.8979040399        1.3891356678        0.4783458271
 O         -3.4023150744       -0.6702753091        1.7159547319
 C         -5.5754953346       -0.6519545719        0.2099072486
 C         -5.8998206495       -1.9411474971        0.5882284856
 C         -7.1736751890       -2.4169534664        0.3209295566
 C         -8.0964324942       -1.6009445798       -0.3168111648
 C         -7.7570111287       -0.3088012459       -0.6888206306
 C         -6.4843333402        0.1730736604       -0.4255601049
 H         -6.1784927368        1.1732069596       -0.6876019579
 H         -8.4776186198        0.3241118910       -1.1811297489
 H         -9.0874212127       -1.9737060710       -0.5221963710
 H         -7.4419694101       -3.4199026098        0.6114007006
 H         -5.1524027375       -2.5337779206        1.0898514732
 H         -3.7386098415       -0.8564049106       -1.5940913159
 H         -2.2066811616       -0.4253140766       -3.3062631538
 H         -0.0483706718        0.5837970281       -3.9441438155
 H          1.4492841208        1.5121094450       -2.2188886645
 H          0.5012319263        1.4912061378        1.4350954341
 C          1.2547853491        3.0893604528        0.2392505950
 C          0.1121884000        4.0306591886        0.4685028795
 C          1.2807286563        4.0257197489        1.4072904427
 H          1.9653439453        4.8602580270        1.3835422768
 H          1.1424339628        3.6015603452        2.3916708522
 H         -0.0059267220        4.8698054847       -0.1997977966
 H         -0.8216012638        3.6083992665        0.8118112051
 H          1.9257843518        3.2985015758       -0.5829397655
