  62
        -98.94468805
 C         -2.5672138317       -0.1941684509       -0.3400840270
 C         -2.1250657619       -0.7271246290        0.8955625032
 C         -1.6408886716       -2.1145736121        0.8571279615
 C         -1.6320767049       -2.7781913897       -0.3127825211
 C         -1.1517225466       -4.1882635616       -0.5005842122
 C          0.3314499518       -4.2364088820       -0.8890036288
 C          1.2393343897       -3.4068882588        0.0194123906
 H          2.2671516964       -3.5696367247       -0.3149006892
 H          1.0276920504       -2.3445105860       -0.1268019731
 C          1.1277786894       -3.7423757890        1.5131913051
 H          2.1346135800       -3.7855384261        1.9336394206
 H          0.6778715542       -4.7284004513        1.6406006748
 C          0.3489893824       -2.7116385076        2.3334733529
 H          0.7141523551       -1.7102789620        2.0932000683
 H          0.5507982753       -2.8950954548        3.3925176019
 C         -1.1741876914       -2.7225090180        2.1493712913
 H         -1.5540656883       -3.7414789334        2.2565453234
 H         -1.6089373639       -2.1063930192        2.9419496767
 H          0.6557484548       -5.2791477200       -0.8756975768
 H          0.4365135159       -3.8584855330       -1.9089753993
 H         -1.3142143819       -4.7441639067        0.4209330756
 H         -1.7404961859       -4.6444443057       -1.2988693956
 O         -2.0503863983       -2.2269836278       -1.4828186920
 C         -2.5015729516       -0.9190769177       -1.5279745701
 O         -2.8239418446       -0.5239089826       -2.6697133436
 O         -2.1542560441       -0.0846495195        1.9773723899
 C         -3.0498654938        1.2433141273       -0.4196181614
 C         -1.9324969134        2.1773477616       -0.0203168419
 C         -2.1179208206        3.3171969010        0.7504614758
 C         -1.0432011280        4.1272929552        1.0800940085
 C          0.2383636168        3.8112514837        0.6674931148
 C          0.4308446461        2.6784667937       -0.1127561401
 C         -0.6483171034        1.8905996152       -0.4681604330
 H         -0.4805098270        1.0172407643       -1.0859522700
 N          1.7502026865        2.2927830293       -0.4928961959
 S          2.0420925926        0.6389515854       -0.5032938104
 O          1.7310682663        0.0495791714       -1.7927694070
 O          1.4046174092        0.0694513767        0.6540569403
 C          3.8096528123        0.6363826425       -0.2683212302
 C          4.6519393767        0.3357016504       -1.3203313606
 C          6.0225504149        0.3690018352       -1.1137149761
 C          6.5241804652        0.7034431414        0.1345783510
 C          5.6655255881        1.0017942256        1.1825385531
 C          4.2952538864        0.9691925718        0.9817530315
 H          3.5878798662        1.1852421158        1.7656007392
 H          6.0586974686        1.2589760827        2.1528770689
 H          7.5907365962        0.7295859814        0.2928671134
 H          6.6915944268        0.1342976882       -1.9259477929
 H          4.2160382428        0.0744344155       -2.2713838561
 H          2.0769806401        2.7290622429       -1.3433935665
 H          1.0834213903        4.4215346874        0.9414175902
 H         -1.2067972683        5.0080521012        1.6821538727
 H         -3.1061308683        3.5681923498        1.1006338395
 H         -3.2789686667        1.4257372142       -1.4810183665
 C         -4.3139821064        1.4329899804        0.3927032759
 C         -5.3389999480        2.4419715013       -0.0281137703
 C         -5.6184042856        0.9786449309       -0.1877210073
 H         -6.3397663430        0.5135693520        0.4669831361
 H         -5.5958223856        0.5564377338       -1.1822567009
 H         -5.8748447851        2.9823397895        0.7375356722
 H         -5.1387155632        3.0172256031       -0.9194860599
 H         -4.1533085493        1.2712686851        1.4521375058
