  62
        -98.94530846
 C          2.1365424569        0.8895117923        0.0767254989
 C          2.8680720094        0.2396811821        1.0984418565
 C          3.5868936750       -0.9778934004        0.7002183041
 C          3.4726553147       -1.4242559232       -0.5642228806
 C          4.1845219643       -2.6246346415       -1.1162578099
 C          5.5347984342       -2.2341664923       -1.7335978699
 C          6.3961410010       -1.3541800897       -0.8276586630
 H          7.3350427716       -1.1678558626       -1.3533403556
 H          5.9033555449       -0.3880460365       -0.6971651756
 C          6.6933671722       -1.9614345164        0.5505206753
 H          6.5095964071       -3.0362233883        0.5291800307
 H          7.7522844917       -1.8179309565        0.7751516354
 C          5.9055308298       -1.3356526943        1.7029013562
 H          6.0118210348       -0.2484305373        1.6710999685
 H          6.3455759621       -1.6804739290        2.6423445258
 C          4.4095659366       -1.6720057754        1.7493599486
 H          4.2730969345       -2.7540898749        1.6936366527
 H          4.0208305424       -1.3260061333        2.7117623599
 H          6.0778787957       -3.1482050619       -1.9804910595
 H          5.3456353071       -1.6896439812       -2.6615730788
 H          4.3334114740       -3.3510588116       -0.3195275011
 H          3.5556640913       -3.0708625185       -1.8887744432
 O          2.7217039951       -0.7990188660       -1.5069490140
 C          2.0440251822        0.3771180820       -1.2177350432
 O          1.4096603307        0.8540942452       -2.1769287461
 H         -0.0945852131        0.1384111153        1.2635927839
 C         -0.6957170132        0.8331968307        0.6887583400
 C         -0.0922940377        1.9672412468        0.1580214202
 C         -0.8741329168        2.8484683635       -0.5761869678
 C         -2.2173992388        2.5857670861       -0.7849693478
 C         -2.8104458733        1.4515018993       -0.2627085680
 C         -2.0391743396        0.5666634272        0.4799108135
 N         -2.6353535945       -0.5851747895        1.0271940636
 S         -3.4817821961       -1.5928157151       -0.0191659962
 O         -3.4398147695       -2.8993756088        0.6022591576
 O         -2.9765187404       -1.5066189058       -1.3697973389
 C         -5.1490258416       -0.9715777257        0.0552317482
 C         -5.7598682983       -0.8929409623        1.2916217442
 C         -7.0598220828       -0.4190162590        1.3661646349
 C         -7.7241386300       -0.0372135791        0.2098985586
 C         -7.0980383269       -0.1253024043       -1.0240083844
 C         -5.7970600872       -0.5975634875       -1.1055730390
 H         -5.2671483694       -0.6786090543       -2.0414432628
 H         -7.6157922565        0.1714341294       -1.9219895346
 H         -8.7359376967        0.3313483433        0.2706786694
 H         -7.5499676456       -0.3489439201        2.3238100500
 H         -5.2096147702       -1.2035575006        2.1639907820
 H         -2.0026319266       -1.1301717761        1.5957725684
 H         -3.8540340123        1.2403540506       -0.4297094371
 H         -2.8108317470        3.2749377722       -1.3661043093
 H         -0.4300348713        3.7352943356       -0.9970657616
 C          1.3826889689        2.1652659599        0.4077613277
 H          1.5292170966        2.3194079240        1.4873798800
 C          1.9765514968        3.3417480126       -0.3373104746
 C          1.8759661626        4.7241372424        0.2328703666
 C          3.1940920799        4.0119009672        0.2229515522
 H          3.9594158437        4.3469152384       -0.4610513322
 H          3.5806781885        3.6345245369        1.1585324965
 H          1.7380911160        5.5525604028       -0.4452805336
 H          1.3693173995        4.8381504222        1.1791017965
 H          1.9211042487        3.2227520746       -1.4136536147
 O          2.9114698064        0.6542192342        2.2888994922
