  62
        -98.94385824
 C          1.8602777507        1.1665541897       -0.4454107770
 C          1.8883581825       -0.0125304729        0.3384229563
 C          3.1888912399       -0.3484297048        0.9322613998
 C          4.2454989074        0.4607582353        0.7358231158
 C          5.6282929531        0.2626053705        1.2949997899
 C          6.5071269395       -0.6835731473        0.4653209511
 C          6.1367726990       -2.1644861547        0.5576054105
 H          6.9587911266       -2.7278704380        0.1114326102
 H          6.0740492163       -2.4573553496        1.6062057549
 C          4.8338544971       -2.5375916184       -0.1632620952
 H          4.5635462961       -1.7416670956       -0.8609613349
 H          4.9920441660       -3.4419837235       -0.7550591254
 C          3.6491869505       -2.8047829562        0.7652491714
 H          3.8547813671       -3.6853834879        1.3778751440
 H          2.7736125046       -3.0203449810        0.1480301270
 C          3.2995659243       -1.6346694759        1.6939882325
 H          2.3268690684       -1.8350818011        2.1503072964
 H          4.0438287385       -1.5469988775        2.4852769257
 H          7.5346614563       -0.5653985721        0.8170916623
 H          6.4753194284       -0.3639795694       -0.5789378360
 H          5.5608984087       -0.1053980714        2.3193128737
 H          6.1016155054        1.2468521678        1.3102046084
 O          4.1688358023        1.6007148773       -0.0023356292
 C          2.9859144488        1.9700694548       -0.6233459744
 O          3.0607188020        3.0235717308       -1.2890023672
 O          0.8862439943       -0.7442797939        0.5366097584
 C          0.5775783486        1.5857926642       -1.1370248056
 C         -0.5485774048        1.7708320479       -0.1482260165
 C         -0.2885476500        2.2675639953        1.1253332350
 C         -1.3053602552        2.4269402196        2.0481428571
 C         -2.6115242046        2.1103879498        1.7177194725
 C         -2.8868623138        1.6402201149        0.4423694804
 C         -1.8626332902        1.4737129743       -0.4815812485
 H         -2.0970121454        1.1008012293       -1.4670241995
 N         -4.2228710349        1.3164511922        0.1089797514
 S         -4.8100808870       -0.1066688442        0.7751374213
 O         -6.1788803676       -0.2191386579        0.3247462336
 O         -4.6018390878       -0.0701899776        2.1991072809
 C         -3.8203436979       -1.3829026521        0.0189972522
 C         -2.5187565749       -1.5549634343        0.4452228946
 C         -1.7135886358       -2.4711303372       -0.2130700890
 C         -2.2238813529       -3.1999977825       -1.2761027731
 C         -3.5370290864       -3.0223211529       -1.6870341956
 C         -4.3420479715       -2.0978433422       -1.0419950752
 H         -5.3648192059       -1.9198201708       -1.3332463327
 H         -3.9304960573       -3.5941113676       -2.5122716213
 H         -1.5923249505       -3.9094454170       -1.7880365193
 H         -0.6870104761       -2.5759749800        0.0997253192
 H         -2.1389507303       -0.9771440058        1.2720610835
 H         -4.3900562744        1.2980886175       -0.8882850779
 H         -3.4139175567        2.2062042783        2.4305862370
 H         -1.0788516739        2.8008575903        3.0354387401
 H          0.7295685728        2.5174503357        1.3917369863
 H          0.7870524459        2.5610269757       -1.6015940980
 C          0.2375766764        0.5863105180       -2.2268846130
 C         -0.4036000490        1.0339476531       -3.5053675569
 C          1.0320318658        0.6045228423       -3.4967410699
 H          1.2946794264       -0.3362780274       -3.9563984423
 H          1.7945667519        1.3644652452       -3.5911072128
 H         -1.1268156845        0.3837424948       -3.9749624958
 H         -0.6125466479        2.0869732215       -3.6217950253
 H         -0.0436327015       -0.3809157304       -1.8255306618
