  62
        -98.94459325
 C          1.6027208231        1.4645984570        0.1881124775
 C          1.7960810140        0.4034966695        1.1119447765
 C          3.0384620101       -0.3638939312        0.9759615890
 C          3.8986366949       -0.0633360572       -0.0142824580
 C          5.2367866593       -0.7083958930       -0.2564160154
 C          5.1765959935       -2.0265110064       -1.0401024117
 C          4.6279428256       -3.2211159089       -0.2592780248
 H          5.1656314599       -3.3147474763        0.6847376571
 H          4.8431396886       -4.1157804486       -0.8466901589
 C          3.1180262634       -3.1559139474        0.0084558894
 H          2.6638971980       -4.1213231315       -0.2256986481
 H          2.6699329700       -2.4147572864       -0.6578275091
 C          2.7457631573       -2.8175814821        1.4519620615
 H          3.1040318660       -3.6069911490        2.1164839770
 H          1.6562481935       -2.7832770125        1.5342627175
 C          3.2997324425       -1.4756222447        1.9479472576
 H          4.3693800226       -1.5606754238        2.1415972044
 H          2.7953029735       -1.2220724984        2.8838999908
 H          6.1952864753       -2.2629373151       -1.3556616329
 H          4.5776891657       -1.8716394354       -1.9402942532
 H          5.7367295977       -0.8758607815        0.6983732802
 H          5.8239532463        0.0086461199       -0.8342032753
 O          3.6490361480        0.9175058751       -0.9183313299
 C          2.5091287865        1.7073207301       -0.8452991193
 O          2.4452955243        2.5629080955       -1.7485625414
 O          0.9741318796        0.1269789916        2.0273788819
 C          0.3779014178        2.3379793845        0.4020268845
 C         -0.7704164353        1.9538659129       -0.4994874568
 C         -0.6997046499        2.1013408735       -1.8811422627
 C         -1.7798500126        1.7624452593       -2.6749965626
 C         -2.9401126605        1.2566768308       -2.1137866664
 C         -3.0172773954        1.0977911433       -0.7361333995
 C         -1.9383800283        1.4570780556        0.0603707749
 H         -2.0161730723        1.3294254595        1.1297169745
 N         -4.1757444785        0.5788294759       -0.1289905983
 S         -3.9974046163       -0.6987271623        0.9431790617
 O         -5.3214240611       -1.2722023462        1.0474663903
 O         -3.4096567080       -0.2346350520        2.1720025111
 C         -2.9146705656       -1.8193659127        0.0776133915
 C         -1.5464650175       -1.7385672198        0.2414507216
 C         -0.7372575774       -2.5461871398       -0.5429017142
 C         -1.2992753270       -3.4169946850       -1.4625522807
 C         -2.6764349567       -3.4933999498       -1.6059777088
 C         -3.4916751980       -2.6812672396       -0.8360106609
 H         -4.5667551130       -2.7081559304       -0.9127167167
 H         -3.1129675564       -4.1758240537       -2.3172291972
 H         -0.6584876923       -4.0387180810       -2.0676787558
 H          0.3330033914       -2.4810464433       -0.4302913405
 H         -1.1235392864       -1.0626923732        0.9687130579
 H         -4.9246855548        0.3832033405       -0.7785522686
 H         -3.7800742430        0.9886896448       -2.7364912394
 H         -1.7154606847        1.8861914495       -3.7453838285
 H          0.2112381751        2.4750038995       -2.3227369673
 H          0.0620295404        2.1333073223        1.4348033195
 C          0.6743594495        3.8208787300        0.2821462666
 C         -0.2534518268        4.7983416075        0.9360989877
 C          1.1207313118        4.5801059950        1.4934753068
 H          1.8592200530        5.3580474209        1.3705621644
 H          1.2136589814        4.0336439953        2.4210707769
 H         -0.4613740957        5.7285662266        0.4302347307
 H         -1.0930294429        4.3996600526        1.4860991891
 H          1.1123134819        4.0989970281       -0.6672475115
