  62
        -98.94570165
 C         -2.5592071179       -0.1427329118        0.0758054612
 C         -2.4320257640       -1.2088567690       -0.8441172369
 C         -1.8937851227       -2.4611185975       -0.3040757948
 C         -1.5569407571       -2.5347897454        0.9966779676
 C         -0.9779516994       -3.7355541621        1.6942440719
 C          0.5415059953       -3.8672662454        1.5199102868
 C          0.9947271607       -4.3589048158        0.1444065826
 H          2.0429342220       -4.6498065568        0.2369546123
 H          0.4296475748       -5.2507463915       -0.1301095550
 C          0.8765153133       -3.3074364967       -0.9674900949
 H          0.8017030210       -2.3117223686       -0.5232101362
 H          1.7885146828       -3.3066131966       -1.5703396713
 C         -0.2940859243       -3.5168776820       -1.9284313711
 H         -0.1362134787       -4.4325615988       -2.5039525207
 H         -0.3077673522       -2.6760112131       -2.6274077589
 C         -1.6693573029       -3.5990883446       -1.2541850951
 H         -2.4339742096       -3.5344047819       -2.0329177531
 H         -1.7766188305       -4.5520282998       -0.7359713579
 H          0.9995382144       -2.8954965449        1.7216726510
 H          0.8982863313       -4.5733748145        2.2735273850
 H         -1.1949829905       -3.6111379226        2.7572442731
 H         -1.4694828431       -4.6426996253        1.3409194620
 O         -1.7267074920       -1.4977340823        1.8580372212
 C         -2.1898418249       -0.2692380702        1.4154746012
 O         -2.2464791596        0.6079351793        2.2993981442
 H         -0.3697001345        0.7804258210       -0.5349368741
 C         -0.5835317305        1.8128693456       -0.3001566241
 C         -1.9041502314        2.2330901815       -0.2071863184
 C         -2.1513227875        3.5734293690        0.0601822060
 C         -1.0992794128        4.4553286277        0.2450810425
 C          0.2121922698        4.0225674263        0.1896860683
 C          0.4701025421        2.6800959789       -0.0723565005
 N          1.7871968484        2.1911384511       -0.0616052348
 S          2.1275651559        0.5753850676       -0.3535640172
 O          1.8310898421        0.2208051859       -1.7256470216
 O          1.5053369301       -0.2218977164        0.6729287554
 C          3.8928308496        0.5991521319       -0.1095870470
 C          4.7372512810        0.6078705997       -1.2031466383
 C          6.1068049324        0.6520635867       -0.9929359862
 C          6.6056256234        0.6885869361        0.3002968881
 C          5.7456471431        0.6772819326        1.3887436697
 C          4.3758036024        0.6321789957        1.1848948979
 H          3.6681108987        0.6120164243        1.9977346894
 H          6.1365274954        0.7022105185        2.3931771971
 H          7.6714444607        0.7228999805        0.4617530078
 H          6.7776064776        0.6571139287       -1.8368623330
 H          4.3028514187        0.5698572119       -2.1891599480
 H          2.4829411525        2.8273268455       -0.4205054943
 H          1.0295964435        4.7064776140        0.3559003969
 H         -1.3061612148        5.4953276787        0.4472741767
 H         -3.1675773008        3.9267712119        0.1264212010
 C         -3.0015415377        1.2178648837       -0.4269032577
 H         -3.1462409628        1.0972924636       -1.5122109123
 C         -4.3201916607        1.6256471969        0.1983430556
 C         -5.3152459604        2.4333768603       -0.5788725613
 C         -5.5813591422        0.9860956422       -0.2977594416
 H         -6.3454709306        0.7278306032        0.4197481343
 H         -5.4884408025        0.2797857074       -1.1100383085
 H         -5.9024038795        3.1709875759       -0.0528500663
 H         -5.0556112716        2.7107531048       -1.5894808466
 H         -4.2331574502        1.8022851134        1.2644886357
 O         -2.7527329299       -1.1162520678       -2.0620650008
