  62
        -98.93631306
 C         -2.0052314368       -0.5486379851        0.1303321999
 C         -2.6998760864        0.6885711909        0.1413182010
 C         -4.0673341637        0.6936322077       -0.4021531770
 C         -4.5861701850       -0.4496881499       -0.8809492566
 C         -5.9323774163       -0.6801105589       -1.5209718387
 C         -7.1475162963        0.0068990844       -0.8843504609
 C         -7.0836490301        0.1501487950        0.6432432071
 H         -8.0069584509       -0.2398758903        1.0755432263
 H         -6.2604140944       -0.4456213550        1.0411416557
 C         -6.9283683806        1.6025003937        1.1005641245
 H         -7.2529011402        1.6801157145        2.1410873447
 H         -7.5928104535        2.2311483495        0.5037018945
 C         -5.5093188094        2.1650468469        1.0269204301
 H         -5.5559163709        3.2292446859        1.2708762765
 H         -4.8822350964        1.6909146832        1.7869978548
 C         -4.8011294935        2.0017489124       -0.3280290519
 H         -5.4985856342        2.1196945880       -1.1538456888
 H         -4.0371726159        2.7804826613       -0.4038197284
 H         -8.0229246793       -0.5842988763       -1.1584863460
 H         -7.2837179851        0.9921613343       -1.3279248225
 H         -5.8630851033       -0.3829539412       -2.5715283539
 H         -6.0732130284       -1.7635083311       -1.5023167140
 O         -3.8863398723       -1.6166658441       -0.8730262660
 C         -2.5948273383       -1.7061117939       -0.3762597164
 O         -2.1160459662       -2.8542565925       -0.4532827280
 H          1.2909151919        1.3672210869        0.3961197160
 C          1.3521423327        0.6075235690       -0.3684333627
 C          0.4521757082       -0.4482121662       -0.3784677282
 C          0.5568447081       -1.4073437326       -1.3813612133
 C          1.5340941915       -1.3002842991       -2.3534238607
 C          2.4403109836       -0.2539101008       -2.3310701743
 C          2.3497486065        0.7039002579       -1.3295189873
 N          3.2687430312        1.7709008070       -1.2570218534
 S          4.2136249274        1.8693730793        0.1235207376
 O          3.3800423102        2.1175827966        1.2705128871
 O          5.2177924156        2.8654871422       -0.1742999183
 C          4.9730552961        0.2589412306        0.2436906763
 C          4.2550974143       -0.7833835741        0.7962847310
 C          4.8186043404       -2.0495837501        0.8082203954
 C          6.0817427214       -2.2510430144        0.2733504115
 C          6.7913536685       -1.1929289118       -0.2741838415
 C          6.2309355279        0.0739473229       -0.2963212835
 H          6.7464307094        0.9257670920       -0.7097901789
 H          7.7748293891       -1.3517659535       -0.6863307610
 H          6.5147323777       -3.2388311084        0.2846965495
 H          4.2645199480       -2.8720290680        1.2312565134
 H          3.2760605753       -0.5943686210        1.2053438727
 H          3.8591041497        1.8528335901       -2.0734740182
 H          3.2091339383       -0.1770218480       -3.0851304895
 H          1.5984027453       -2.0463628762       -3.1307443600
 H         -0.1411660227       -2.2300271941       -1.3949171106
 C         -0.5985591702       -0.5426667882        0.7022923989
 H         -0.5377204686        0.3778234759        1.2994702806
 C         -0.3052100070       -1.7197396057        1.6128555877
 C          0.7515965139       -1.5736736409        2.6649622983
 C         -0.6936854660       -1.6428135174        3.0571241130
 H         -1.0579833495       -2.5367781146        3.5404140922
 H         -1.1725043024       -0.7363324199        3.3987678954
 H          1.3829559970       -2.4208432718        2.8847554223
 H          1.2493150199       -0.6178824455        2.7482621074
 H         -0.4036161990       -2.6789745022        1.1218107859
 O         -2.1935583429        1.7536322249        0.5871408991
