  62
        -98.93777325
 C         -2.4689432955       -0.9075532865        0.7204362820
 C         -3.5305893238       -0.9450383000       -0.2164290550
 C         -4.6857014067       -0.0852069277        0.0884296222
 C         -4.6715114856        0.6853088540        1.1903163315
 C         -5.7549945591        1.6465181789        1.5830314943
 C         -5.4956516970        3.0457917017        1.0074987058
 C         -5.1648055897        3.0491732178       -0.4849937095
 H         -4.2068343807        2.5469653415       -0.6396766813
 H         -5.0325534970        4.0906429908       -0.7862969204
 C         -6.2301823011        2.3916215847       -1.3732142658
 H         -6.4031081753        3.0292027557       -2.2428056110
 H         -7.1735816523        2.3215007353       -0.8304571832
 C         -5.8473521858        1.0089725920       -1.9040537466
 H         -4.8585358215        1.0551534519       -2.3675142519
 H         -6.5619284991        0.7349430861       -2.6848717461
 C         -5.8427724894       -0.1240530050       -0.8702707231
 H         -5.7496011349       -1.0683132457       -1.4145389099
 H         -6.7908094248       -0.1319236700       -0.3286835467
 H         -4.6551247678        3.4911661970        1.5446965073
 H         -6.3787122898        3.6616704585        1.1874244836
 H         -6.7128298330        1.2692755826        1.2300678824
 H         -5.7788733864        1.7103778778        2.6722063800
 O         -3.6293827451        0.7071146785        2.0596115384
 C         -2.5124536767       -0.0798066823        1.8469885958
 O         -1.6334742785        0.0354614300        2.7254970420
 H          1.1726907893       -0.6355438977        1.1815696437
 C          0.9637881300       -0.5705086995        0.1219089327
 C         -0.2298820719       -1.0822836032       -0.3659224555
 C         -0.4946327515       -0.9769950695       -1.7271728295
 C          0.4173166119       -0.3695439250       -2.5711773234
 C          1.6054603304        0.1434943612       -2.0811244833
 C          1.8786531938        0.0455565298       -0.7235102216
 N          3.0715707054        0.5853766043       -0.2108944790
 S          4.4853614251        0.3369851845       -1.1021249089
 O          4.5545373114        1.3406792298       -2.1346146256
 O          4.5536641542       -1.0354473833       -1.5508286745
 C          5.7297076889        0.6513977884        0.1334285406
 C          6.3062877061       -0.4149056081        0.7970143800
 C          7.2558908520       -0.1616597754        1.7743366778
 C          7.6080811650        1.1462649000        2.0716973496
 C          7.0206196879        2.2060728682        1.3965647329
 C          6.0715361403        1.9600630371        0.4172559953
 H          5.5957918157        2.7508171655       -0.1389540940
 H          7.2994857016        3.2211494755        1.6291795266
 H          8.3472652382        1.3406003972        2.8327126681
 H          7.7167792274       -0.9833803454        2.2985104565
 H          6.0080748239       -1.4153086891        0.5268408612
 H          3.2056118426        0.3605529782        0.7653886972
 H          2.3255132625        0.6136412772       -2.7317969811
 H          0.2013058122       -0.2934741131       -3.6265709597
 H         -1.4262176056       -1.3609404460       -2.1133477828
 C         -1.2039863071       -1.7411569071        0.5823270167
 H         -0.7454664385       -1.7419674184        1.5804473073
 C         -1.4716906440       -3.1791050264        0.1833557908
 C         -0.4296995708       -4.2146305194        0.4759179479
 C         -1.7125074446       -4.2013389471        1.2510303266
 H         -2.4379927291       -4.9787700938        1.0646345379
 H         -1.6848904115       -3.8677527479        2.2784357723
 H          0.4700434606       -3.8911322321        0.9776471276
 H         -0.2704768193       -5.0024040987       -0.2442030384
 H         -2.0366701586       -3.2768743436       -0.7334378942
 O         -3.5422581354       -1.6532332119       -1.2575555414
