  62
        -98.93524079
 C          2.2311106475        0.8080994410        0.2646382055
 C          2.8056569773       -0.2272726670        1.0454712680
 C          3.7050483089       -1.1529863860        0.3470391560
 C          3.8833905933       -1.0156108234       -0.9792953585
 C          4.8072955941       -1.8545007877       -1.8127512788
 C          6.2056937111       -1.2262428512       -1.8948871777
 C          6.7801261648       -0.8170906367       -0.5385924061
 H          7.7798611924       -0.4153361671       -0.7168414821
 H          6.1761099249       -0.0057010947       -0.1262033810
 C          6.8625400173       -1.9573043603        0.4859005867
 H          6.7938451586       -2.9191187065       -0.0235644260
 H          7.8377992155       -1.9187404382        0.9756642827
 C          5.8067557392       -1.8938952820        1.5911882754
 H          6.0865659152       -2.6077379162        2.3705478873
 H          5.8087941146       -0.8988169661        2.0432122501
 C          4.3715374433       -2.2251492188        1.1626567279
 H          3.7687294577       -2.3301725039        2.0696314727
 H          4.3567046831       -3.1785908432        0.6302698830
 H          6.8764416197       -1.9403907826       -2.3759765500
 H          6.1479726554       -0.3358159360       -2.5250209021
 H          4.8698007725       -2.8526967120       -1.3834133207
 H          4.3908208706       -1.9275331953       -2.8188337525
 O          3.2652369937       -0.0553829277       -1.7084601235
 C          2.4327933525        0.8877812357       -1.1149014117
 O          1.9560026608        1.7044922111       -1.9199862052
 O          2.5763855498       -0.3698461186        2.2784625763
 C          1.3221721460        1.7957452274        0.9877955806
 C         -0.0802075119        1.6671386934        0.4473951329
 C         -0.6145195545        2.3875328532       -0.6144366452
 C         -1.9015234965        2.1347531613       -1.0586541724
 C         -2.6860203526        1.1615718632       -0.4683357559
 C         -2.1579336623        0.4169792503        0.5776411068
 C         -0.8729435554        0.6797026535        1.0265550968
 H         -0.4641086776        0.0888179146        1.8369845722
 N         -2.9394377814       -0.5797469258        1.1886584882
 S         -3.7239770568       -1.6874915401        0.2007205842
 O         -3.9192082093       -2.8580143753        1.0286651253
 O         -3.0137231578       -1.8899881821       -1.0413033882
 C         -5.3049640109       -0.9287391842       -0.1096823380
 C         -5.7461027688       -0.7613634397       -1.4076488482
 C         -6.9830233872       -0.1739311595       -1.6244852220
 C         -7.7529219443        0.2320951097       -0.5453396573
 C         -7.2968914624        0.0535055139        0.7523656482
 C         -6.0620397824       -0.5339151242        0.9760843873
 H         -5.6727100770       -0.6931823255        1.9676915112
 H         -7.8985853653        0.3702548352        1.5889459548
 H         -8.7140328711        0.6904283117       -0.7169202119
 H         -7.3390491901       -0.0349660093       -2.6326535183
 H         -5.1098368214       -1.0862647457       -2.2157069468
 H         -2.4708744840       -1.0506535619        1.9495352519
 H         -3.6859289288        0.9637459747       -0.8180780509
 H         -2.2967341927        2.7064040482       -1.8846907977
 H         -0.0206336249        3.1220378740       -1.1272842731
 H          1.2881847451        1.4023733715        2.0160948030
 C          1.9555867552        3.1743250874        1.1226937778
 C          2.1645857361        4.1691454716        0.0221184470
 C          1.1738150721        4.4534066474        1.1100905214
 H          1.4216221770        5.2090355891        1.8406456464
 H          0.1231582938        4.3976413798        0.8732507080
 H          3.0961106763        4.7179728583        0.0253202109
 H          1.8247649385        3.9216864401       -0.9692335644
 H          2.7672502995        3.1257221595        1.8453163746
