  62
        -98.93892907
 C         -0.6354517616       -1.5323347165        0.3221319006
 C         -1.1205129576       -0.7276657661       -0.7349133900
 C         -2.2964826361        0.1172149954       -0.4349574852
 C         -2.8026489577        0.1387192804        0.8110046961
 C         -3.9670981548        0.8987801086        1.4128365195
 C         -4.9271415517        1.6856965817        0.5251820074
 C         -5.8410901389        0.8189488224       -0.3421642679
 H         -6.5772218569        0.3378945244        0.3067523192
 H         -6.3822025293        1.4702388709       -1.0317887166
 C         -5.1467180984       -0.2826653318       -1.1392513321
 H         -4.6499630698       -0.9741756791       -0.4559925395
 H         -5.9176713663       -0.8500491959       -1.6676906858
 C         -4.1351211484        0.1994536414       -2.1765934820
 H         -3.8162405406       -0.6698403505       -2.7584692421
 H         -4.6156876385        0.9005176592       -2.8622755279
 C         -2.8722855869        0.8636438038       -1.6046039600
 H         -2.1026715789        0.8529403031       -2.3828945005
 H         -3.0599925192        1.9040795083       -1.3509239702
 H         -4.3811831934        2.3977946829       -0.0868284959
 H         -5.5662235599        2.2690723115        1.1934608773
 H         -4.5383982382        0.1631212057        1.9881408943
 H         -3.5274295009        1.5826082459        2.1460923081
 O         -2.2401260839       -0.5854899160        1.8220166584
 C         -1.1844225615       -1.4469554023        1.6037899228
 O         -0.8259881306       -2.0811501064        2.6159236557
 H          1.5444497049       -0.3165201056       -1.0080327742
 C          2.2220507381       -0.7703361722       -0.3011186431
 C          1.8483141494       -1.9163896052        0.3868570613
 C          2.7524178749       -2.4937930143        1.2714717914
 C          4.0052354782       -1.9403937686        1.4613236098
 C          4.3702258759       -0.7892137354        0.7882311315
 C          3.4703799058       -0.1995597648       -0.0936008436
 N          3.8147148816        0.9797357201       -0.7665707582
 S          2.6612756430        2.1167677624       -1.1595286335
 O          1.9961371370        1.7623108615       -2.3860289675
 O          3.4020517593        3.3626772615       -1.1979499892
 C          1.4944646387        2.1869378389        0.1905736212
 C          1.9269595034        2.0346988449        1.4931005788
 C          1.0095544015        2.1623397028        2.5232275887
 C         -0.3121723798        2.4671160576        2.2392543383
 C         -0.7267057548        2.6365348513        0.9283576275
 C          0.1813163587        2.4851093607       -0.1072492933
 H         -0.1066479795        2.5817644217       -1.1419484833
 H         -1.7517904445        2.8854265398        0.7079260399
 H         -1.0212303154        2.5731196579        3.0453489113
 H          1.3287217883        2.0272642918        3.5441485443
 H          2.9616446582        1.8142410005        1.6981382043
 H          4.6818140505        1.4071466693       -0.4760778216
 H          5.3423204122       -0.3458153685        0.9408199823
 H          4.6992212903       -2.4009458658        2.1474662535
 H          2.4615569356       -3.3769063486        1.8203186033
 C          0.4909599739       -2.5417331488        0.1744967018
 H          0.3366899533       -3.2719653802        0.9814808535
 C          0.4696256089       -3.2860883171       -1.1473460870
 C          1.0725954544       -4.6550621522       -1.2233728634
 C         -0.4146049671       -4.4850610495       -1.3011562682
 H         -0.9076331986       -4.6423431502       -2.2486865729
 H         -1.0069746055       -4.7812205686       -0.4472625620
 H          1.6063609855       -4.9317047005       -2.1195788901
 H          1.4862383543       -5.0735921312       -0.3184809974
 H          0.5823570095       -2.6365222099       -2.0055414764
 O         -0.6227826012       -0.6991167407       -1.8913981302
