  62
        -98.93629376
 C         -1.7810840815       -0.0841483627        0.3583517543
 C         -2.8116029768       -0.9759148723        0.7610895989
 C         -4.1551508358       -0.3917395339        0.9066317718
 C         -4.3142330302        0.9364011253        0.7789388830
 C         -5.6279108281        1.6581270141        0.8509222969
 C         -6.2734932576        1.7772161897       -0.5367733746
 C         -6.3212865891        0.4600347387       -1.3112240095
 H         -5.3010398472        0.1490600774       -1.5467507148
 H         -6.8242102354        0.6590578730       -2.2600536080
 C         -7.0419527989       -0.6811591096       -0.5798507112
 H         -7.7083179831       -1.1831697469       -1.2845457868
 H         -7.6629616186       -0.2750173327        0.2193286852
 C         -6.1128542427       -1.7518989958       -0.0045758213
 H         -5.4265126094       -2.0966880688       -0.7820109086
 H         -6.7244284470       -2.6072367979        0.2946577934
 C         -5.2863283401       -1.3313050433        1.2171182256
 H         -4.8211961348       -2.2304465317        1.6317750579
 H         -5.9441933232       -0.9038760409        1.9766264581
 H         -5.7009491407        2.4993129025       -1.1236196721
 H         -7.2858929134        2.1663345974       -0.4138403180
 H         -6.2925795558        1.1244987947        1.5278449134
 H         -5.4485189026        2.6592413387        1.2466086687
 O         -3.2774923590        1.7769756031        0.5369002469
 C         -1.9896677017        1.2969691382        0.3336949014
 O         -1.1490348620        2.2007886279        0.1633241023
 H          1.8810776745        0.6239965999        0.9535923307
 C          1.6563845885        0.8298563858       -0.0822018021
 C          0.4972715981        0.3303090096       -0.6537041478
 C          0.2197618403        0.6375068154       -1.9823278729
 C          1.0685458832        1.4522758316       -2.7041626287
 C          2.2249929586        1.9517525344       -2.1299892527
 C          2.5156983064        1.6439793228       -0.8073214328
 N          3.6765402582        2.1374209661       -0.1972977626
 S          4.4728632137        1.2566328674        0.9691383367
 O          3.7724267798        1.3235584351        2.2278389795
 O          5.8171951633        1.7928846449        0.9681862979
 C          4.4971975250       -0.4266433770        0.3749555056
 C          4.0023317253       -1.4408269210        1.1692331261
 C          4.0395225410       -2.7436828254        0.6975756870
 C          4.5667463459       -3.0083416854       -0.5568742009
 C          5.0618775147       -1.9791307601       -1.3430621822
 C          5.0296877556       -0.6755803337       -0.8748654106
 H          5.4161187157        0.1441740072       -1.4579419899
 H          5.4707936732       -2.1881789471       -2.3182844215
 H          4.5877013044       -4.0223144956       -0.9230525620
 H          3.6508275415       -3.5446144068        1.3058159549
 H          3.5957102790       -1.1910840603        2.1365945997
 H          4.3040773879        2.6463246705       -0.8007784729
 H          2.8880719267        2.5891083998       -2.6948083494
 H          0.8344036124        1.6987173221       -3.7288661175
 H         -0.6821979800        0.2523697232       -2.4346648971
 C         -0.3771163978       -0.6257075381        0.1162211629
 H          0.0925815234       -0.8014363703        1.0976947738
 C         -0.4021752557       -1.9478975527       -0.6475939427
 C          0.8907865850       -2.5482218000       -1.1193072277
 C          0.1146437240       -3.2049081720       -0.0222632272
 H         -0.4096562474       -4.1258613857       -0.2242774401
 H          0.4929529877       -3.1361175263        0.9862257863
 H          1.8037798304       -2.0326555849       -0.8620951995
 H          0.9106092882       -3.0190573158       -2.0898893249
 H         -1.2567881691       -2.0482077655       -1.3061429221
 O         -2.6328142781       -2.1975832097        0.9946563785
