  62
        -98.93894662
 C          2.1876186270       -1.0660392059       -0.4646611442
 C          2.2742280050       -0.2088574500        0.6567681207
 C          3.0591322059        1.0267720779        0.4752653909
 C          3.6103151677        1.2824124646       -0.7239466965
 C          4.4836665419        2.4460785222       -1.1045417128
 C          5.9703119576        2.0917256334       -0.9288667596
 C          6.5338927574        2.3501875320        0.4677411475
 H          7.5470394186        1.9424611846        0.4894017755
 H          6.6103858203        3.4273585457        0.6298788901
 C          5.7332585113        1.7380026304        1.6199170049
 H          5.4276731186        0.7234848789        1.3578342098
 H          6.3948432209        1.6635137131        2.4850118671
 C          4.5011682928        2.5692010768        2.0078466113
 H          4.5643229024        3.5470139413        1.5306919518
 H          4.5099767876        2.7498829200        3.0847370959
 C          3.1476611114        1.9217714298        1.6812266546
 H          2.8348760175        1.2887022449        2.5178447177
 H          2.3870959054        2.7052513995        1.5881084144
 H          6.0957530443        1.0372564782       -1.1876468033
 H          6.5553175470        2.6751111604       -1.6426506920
 H          4.2954218410        2.6424730313       -2.1622577000
 H          4.2184287296        3.3303717896       -0.5326737976
 O          3.4740197948        0.4424196005       -1.7879982268
 C          2.7644502952       -0.7406656119       -1.6907097856
 O          2.7109519798       -1.4001513020       -2.7492970019
 H         -0.1556080463       -0.5406916787       -1.5011951473
 C         -0.6889687829       -1.0642447449       -0.7158606024
 C         -0.0323027033       -2.0621196954       -0.0057434020
 C         -0.7273069311       -2.7260356091        0.9958473232
 C         -2.0370481089       -2.3824532768        1.2847060533
 C         -2.6825243554       -1.3821588566        0.5817966992
 C         -1.9987639277       -0.7161412872       -0.4271665686
 N         -2.6493780409        0.2943012741       -1.1601821293
 S         -3.3663968038        1.5467387561       -0.2968420648
 O         -3.3888825971        2.6678353269       -1.2119765395
 O         -2.7107638374        1.7648751241        0.9716545292
 C         -5.0336187127        0.9773161557       -0.0383684238
 C         -5.5317949509        0.8604936952        1.2444228020
 C         -6.8333325066        0.4160786762        1.4193308142
 C         -7.6089573365        0.0992699420        0.3146147782
 C         -7.0945537424        0.2255273728       -0.9673510183
 C         -5.7947574037        0.6699429812       -1.1492124951
 H         -5.3577679286        0.7866713431       -2.1268670789
 H         -7.7009205806       -0.0210033291       -1.8239719142
 H         -8.6206870521       -0.2476097805        0.4536763585
 H         -7.2350934227        0.3182710303        2.4150494475
 H         -4.8893192547        1.1136779587        2.0728728661
 H         -2.0830746950        0.6720322772       -1.9065592681
 H         -3.6997658984       -1.1082574900        0.8087813797
 H         -2.5626773671       -2.9016078423        2.0714835952
 H         -0.2405273341       -3.5046768129        1.5594361407
 C          1.4023761446       -2.3621197482       -0.3691450848
 H          1.4132785065       -2.7984202094       -1.3789465345
 C          2.0845742044       -3.3207868319        0.5840029791
 C          1.9366721310       -4.8005156442        0.4007659225
 C          3.2406655840       -4.1330634958        0.0857529736
 H          4.0791272817       -4.2961600570        0.7460971888
 H          3.5195796170       -4.0132016408       -0.9513256186
 H          1.3319590086       -5.1439232473       -0.4247969555
 H          1.8830332693       -5.4260792327        1.2788861233
 H          2.1453302611       -2.9301395143        1.5931923929
 O          1.7295324312       -0.4628603150        1.7628154753
