  62
        -98.94116241
 C         -1.6419706109       -0.4691951899        0.9606581000
 C         -2.8767653807       -1.0429266204        0.5712316400
 C         -4.0036009910       -0.1065840808        0.4307718096
 C         -3.8146545714        1.2042651593        0.6628048193
 C         -4.8586033817        2.2681756989        0.4888959789
 C         -4.8230505917        2.8544919186       -0.9295161113
 C         -4.8086816412        1.7988783583       -2.0352588910
 H         -4.8143020613        2.3286729980       -2.9903522212
 H         -3.8710282510        1.2404701586       -1.9837020907
 C         -5.9864754209        0.8154651079       -1.9900369109
 H         -6.3784028807        0.6919638275       -3.0018670809
 H         -6.7907488811        1.2281041078       -1.3798095411
 C         -5.6279938205       -0.5809049818       -1.4782721105
 H         -4.7626677404       -0.9612840217       -2.0269340303
 H         -6.4686432903       -1.2469081321       -1.6907031604
 C         -5.3297688107       -0.6845533813        0.0227164296
 H         -6.1413787609       -0.2272443314        0.5920569494
 H         -5.2860193404       -1.7470502512        0.2791187799
 H         -3.9229917519        3.4654421088       -1.0289472113
 H         -5.6908683019        3.5043712583       -1.0560441816
 H         -4.6602439820        3.0655270592        1.2070033087
 H         -5.8398109116        1.8444507887        0.6936111688
 O         -2.6170352416        1.7198458398        1.0391075093
 C         -1.5088833114        0.9051380502        1.1873188897
 O         -0.4734140216        1.5109520906        1.5279073896
 O         -3.0580848703       -2.2689376205        0.3457564203
 C         -0.3648892707       -1.2746195395        1.1414372004
 C          0.3047622896       -1.5212382496       -0.1894541794
 C         -0.2754173800       -2.3321463501       -1.1593169293
 C          0.3671571002       -2.5441775802       -2.3649757292
 C          1.6011108800       -1.9712052299       -2.6189572991
 C          2.1866931097       -1.1552533594       -1.6580960993
 C          1.5294798894       -0.9273503293       -0.4571839094
 H          1.9797442191       -0.2810097690        0.2807025905
 N          3.4238366095       -0.5433563191       -1.8955065693
 S          4.5094141792       -0.2804281584       -0.6527982392
 O          5.7845948693       -0.1268921382       -1.3203518591
 O          4.4393792794       -1.3200017882        0.3472475111
 C          4.0274071187        1.2869508316        0.0373321603
 C          3.8425427985        2.3510631113       -0.8225868500
 C          3.4890987880        3.5824086413       -0.2958754904
 C          3.3301746378        3.7289553916        1.0737701296
 C          3.5227923080        2.6518268219        1.9240087299
 C          3.8758574584        1.4174481719        1.4029011203
 H          4.0277642286        0.5519286521        2.0290313505
 H          3.3932299778        2.7664614922        2.9882404598
 H          3.0506423774        4.6872455017        1.4822740293
 H          3.3355753678        4.4233455411       -0.9530256106
 H          3.9765086586        2.1994823211       -1.8807618699
 H          3.8793770597       -0.8073877892       -2.7564344491
 H          2.1070489602       -2.1495313700       -3.5557513790
 H         -0.0925786395       -3.1723719805       -3.1131465090
 H         -1.2366717099       -2.7811244103       -0.9626577493
 H          0.3060662790       -0.6357567291        1.7318401103
 C         -0.5620882204       -2.5768940593        1.8932316507
 C          0.6439048598       -3.2677777688        2.4529060911
 C         -0.3395612606       -2.6107179489        3.3736060008
 H         -0.9798160605       -3.2371876589        3.9764523009
 H         -0.0480795509       -1.6900173787        3.8581594106
 H          0.6790491201       -4.3461559288        2.4235060614
 H          1.6048731296       -2.7958045686        2.3064400111
 H         -1.3564894901       -3.1928286497        1.4941056808
