  62
        -98.93907652
 C         -2.3017712307       -0.8084587299        0.6237331044
 C         -3.4493600290       -0.9687797742       -0.1916789010
 C         -4.5858116263       -0.0853577331        0.1143427529
 C         -4.4802612625        0.8173190564        1.1051314821
 C         -5.5400810918        1.8114055499        1.4805511450
 C         -5.3686043356        3.1292287971        0.7122200850
 C         -5.1874783645        2.9472367150       -0.7947598486
 H         -5.1078217885        3.9436564987       -1.2348265495
 H         -4.2386105751        2.4381456212       -0.9799525025
 C         -6.3210318038        2.1732526649       -1.4820482228
 H         -7.2036961325        2.1627603828       -0.8416510894
 H         -6.5936771577        2.6951757375       -2.4016819986
 C         -5.9617036926        0.7388026571       -1.8731566612
 H         -5.0246382211        0.7363490550       -2.4353784038
 H         -6.7436034228        0.3615546060       -2.5375559767
 C         -5.8298753796       -0.2551959874       -0.7125744804
 H         -6.7194450456       -0.2045550951       -0.0816811360
 H         -5.7686331398       -1.2593880953       -1.1416969988
 H         -6.2421381060        3.7553707013        0.9029750500
 H         -4.4883212397        3.6453594181        1.1026795334
 H         -6.5193967419        1.3837491059        1.2743605537
 H         -5.4585577177        2.0115212855        2.5502737271
 O         -3.3593519240        0.9541985087        1.8594894041
 C         -2.2561741260        0.1480340916        1.6432847860
 O         -1.3057658551        0.3696411715        2.4226540978
 H          1.5363790301       -0.9247535834        0.6931684090
 C          1.1805470591       -0.8501442190       -0.3232920696
 C         -0.1387728493       -1.1633408872       -0.6183922729
 C         -0.5794489548       -1.0450632296       -1.9320528333
 C          0.2838421436       -0.6080920268       -2.9199289228
 C          1.5970562802       -0.2913040530       -2.6216821436
 C          2.0525168723       -0.4216757725       -1.3142282672
 N          3.4010773690       -0.1686070879       -1.0087319296
 S          3.8441328065        0.4253239445        0.5055620985
 O          3.7114190422       -0.6292268047        1.4788317555
 O          3.1436295025        1.6593693939        0.7862146811
 C          5.5735532064        0.7431894330        0.2096529908
 C          6.0174200589        2.0397196355        0.0338920699
 C          7.3634430216        2.2591893510       -0.2155768768
 C          8.2367465650        1.1845077480       -0.2869437471
 C          7.7764007106       -0.1116637176       -0.1070012381
 C          6.4327394589       -0.3378453217        0.1442405629
 H          6.0310877509       -1.3254104490        0.3001005559
 H          8.4587330963       -0.9445774844       -0.1604725150
 H          9.2833499368        1.3582711431       -0.4810820647
 H          7.7248101841        3.2657020831       -0.3521000589
 H          5.3029636336        2.8441166624        0.1052914906
 H          3.8764131845        0.3362307496       -1.7448588067
 H          2.2682946639        0.0482311103       -3.3959567180
 H         -0.0706185322       -0.5115312214       -3.9351688229
 H         -1.6021593381       -1.2954142423       -2.1678290582
 C         -1.0479327422       -1.6564444192        0.4825039069
 H         -0.5048257118       -1.5374705733        1.4308306727
 C         -1.3411398398       -3.1326645254        0.2854121132
 C         -0.2775166148       -4.1300959440        0.6270386589
 C         -1.5018783618       -4.0152630507        1.4841441995
 H         -2.2362927281       -4.8056970856        1.4468698818
 H         -1.4011583391       -3.5577629265        2.4581630352
 H         -0.1688176611       -5.0017538878        0.0002361142
 H          0.6545414941       -3.7510894400        1.0201836958
 H         -1.9687986281       -3.3343069133       -0.5722890138
 O         -3.5484131329       -1.7997063406       -1.1329249966
