  62
        -98.93831318
 C          1.8822225038        0.7705003793       -0.2372527760
 C          2.4939983211        0.1717286411        0.8877631213
 C          3.5579853441       -0.8078273608        0.6117657918
 C          3.8635555040       -1.1057159529       -0.6629182846
 C          4.8740348698       -2.1005006113       -1.1776075779
 C          6.2393851493       -2.1518973721       -0.4785641823
 C          6.7443206673       -0.8049693203        0.0591758984
 H          7.7627749750       -0.6402484799       -0.2973299105
 H          6.1280265200        0.0076568743       -0.3291974523
 C          6.7663932607       -0.7432543498        1.5883731479
 H          7.4523056821        0.0489525563        1.8978658178
 H          7.1627880497       -1.6862808579        1.9711841379
 C          5.4196547035       -0.4602110814        2.2526978319
 H          5.5506662782       -0.5569716373        3.3331748754
 H          5.1208703040        0.5732631225        2.0574420720
 C          4.2607114966       -1.3703307957        1.8139975903
 H          4.6015096505       -2.3885915518        1.6428334032
 H          3.5200896421       -1.3819373209        2.6185172944
 H          6.9511454798       -2.5432086075       -1.2074586203
 H          6.2035859775       -2.8699513854        0.3395931790
 H          4.4183831486       -3.0947575984       -1.1466256111
 H          5.0116748106       -1.8443817556       -2.2309189806
 O          3.2235687245       -0.5280147425       -1.7190798851
 C          2.2280870694        0.4205478656       -1.5416195870
 O          1.7429881493        0.8606363076       -2.6002249556
 H         -0.3067903405       -0.5904069869        0.3110975972
 C         -0.9213224053        0.0259326510       -0.3335796638
 C         -0.5052010746        1.3194514261       -0.6269934324
 C         -1.3120532622        2.1046127941       -1.4391507942
 C         -2.4825670220        1.5907837148       -1.9717904757
 C         -2.8788533262        0.2950420724       -1.6997231477
 C         -2.0907665599       -0.4915528001       -0.8679162312
 N         -2.4909828388       -1.8039541062       -0.5688764581
 S         -4.1027055875       -2.0840923522       -0.2207027493
 O         -4.1065711872       -3.2517729406        0.6326707673
 O         -4.8522402815       -2.2003064691       -1.4469018023
 C         -4.6479624966       -0.6460375789        0.6841801389
 C         -5.6762403223        0.1302090417        0.1900017781
 C         -6.0646053155        1.2573270528        0.8964987339
 C         -5.4185319016        1.5885081564        2.0771556042
 C         -4.3892392533        0.7962627946        2.5627507184
 C         -3.9981034274       -0.3325871641        1.8615980704
 H         -3.2040571803       -0.9707010486        2.2157564969
 H         -3.8870190661        1.0547628348        3.4812452353
 H         -5.7177543396        2.4685745480        2.6241534385
 H         -6.8658955311        1.8738027228        0.5223205135
 H         -6.1489612435       -0.1625204943       -0.7333236296
 H         -1.8813391934       -2.2866785333        0.0738693321
 H         -3.7746889772       -0.1255562192       -2.1267045821
 H         -3.0923852893        2.2076692467       -2.6137781043
 H         -1.0192922906        3.1159177216       -1.6673132940
 C          0.7898625685        1.8017837060       -0.0210261738
 H          0.6553006378        1.8583786580        1.0695809770
 C          1.2339113356        3.1576767933       -0.5275651575
 C          0.7002669022        4.4105911745        0.0981407816
 C          2.1199564861        3.9978951224        0.3411244930
 H          2.9121627608        4.5645542586       -0.1248469970
 H          2.3804596116        3.6030952827        1.3124970697
 H          0.5187914985        5.2659605664       -0.5348830990
 H         -0.0034125456        4.3036007654        0.9094570555
 H          1.4329443316        3.1585799196       -1.5933831716
 O          2.1548709771        0.4311427947        2.0742984415
