  62
        -98.94605109
 C         -1.4439220375       -1.0852055351        0.0986412993
 C         -2.3692635740       -0.7313615149        1.1072775731
 C         -3.0031957052        0.5865930011        0.9621352410
 C         -2.6431110456        1.3797903115       -0.0636570652
 C         -3.2401684108        2.7261435366       -0.3531163071
 C         -4.4381268800        2.6081372840       -1.3057107526
 C         -5.4561244506        1.5468039795       -0.8886597423
 H         -6.2714203273        1.5750198074       -1.6147528279
 H         -4.9939687800        0.5597897413       -0.9628351513
 C         -6.0251597924        1.7333673564        0.5248246140
 H         -7.1065145418        1.5850694220        0.4894985073
 H         -5.8502863711        2.7552576976        0.8636847204
 C         -5.4762068999        0.7542182863        1.5643309486
 H         -6.0963453004        0.8278789853        2.4618128815
 H         -5.5666166264       -0.2680575653        1.1881809285
 C         -4.0214389858        0.9827352894        1.9940229732
 H         -3.8857238736        2.0242688028        2.2934597487
 H         -3.8288929959        0.3484030878        2.8646251877
 H         -4.0662001695        2.3527432920       -2.3004674979
 H         -4.9285571691        3.5814392592       -1.3655038527
 H         -3.5504438118        3.1898866335        0.5813198896
 H         -2.4775145009        3.3514766279       -0.8202291781
 O         -1.7175202027        1.0223960926       -0.9895340763
 C         -1.1060261126       -0.2237290875       -0.9465134707
 O         -0.2978107986       -0.4336438026       -1.8668053605
 H          0.5708644602       -0.6776607090        1.6684269586
 C          1.2556169937       -1.2478763181        1.0521531255
 C          0.7491926019       -2.2273152971        0.2061239756
 C          1.6418599834       -2.9523292445       -0.5714924379
 C          2.9998279186       -2.6868586101       -0.5145695334
 C          3.4965203776       -1.6980240689        0.3137006913
 C          2.6122860762       -0.9742780672        1.1035504287
 N          3.1044806855        0.0518250453        1.9359854649
 S          4.0150668755        1.2366341201        1.1732746687
 O          5.3562970188        0.7465467624        0.9769587922
 O          3.8876815239        2.4100149359        2.0093182562
 C          3.2233050322        1.4968437811       -0.4023257621
 C          1.9946185440        2.1265566361       -0.4166683248
 C          1.3434629209        2.2982765750       -1.6261231941
 C          1.9239100624        1.8288475047       -2.7936111765
 C          3.1564675202        1.1971805396       -2.7623890835
 C          3.8158062516        1.0269502913       -1.5558570480
 H          4.7762569619        0.5428985083       -1.4878842801
 H          3.6015836805        0.8298222451       -3.6730165485
 H          1.4041432801        1.9500995613       -3.7304755917
 H          0.3774224627        2.7763973444       -1.6543586289
 H          1.5707717160        2.4788515557        0.5112980253
 H          2.3860578732        0.4827898210        2.5003281463
 H          4.5486188741       -1.4681995379        0.3604460477
 H          3.6804282429       -3.2546059539       -1.1303010283
 H          1.2745021747       -3.7199135237       -1.2323284146
 C         -0.7455369442       -2.4309733192        0.1706786350
 H         -1.0578732956       -2.8761319610        1.1272540177
 C         -1.2083679973       -3.3274908834       -0.9585935146
 C         -1.2275151255       -4.8161056055       -0.7857497407
 C         -2.5141957743       -4.0490088466       -0.8198274588
 H         -3.1488619885       -4.1402549411       -1.6885465275
 H         -3.0575117660       -3.9169873044        0.1046779934
 H         -0.9810588743       -5.4372977851       -1.6336000965
 H         -0.9007421741       -5.2143489196        0.1629167258
 H         -0.9593568185       -2.9263669450       -1.9346091619
 O         -2.6452196640       -1.4763750515        2.0873999895
