  62
        -98.94055203
 C          1.3791386769        1.5389973678       -0.3908281338
 C          2.6075167238        1.3744605730        0.2975765161
 C          3.4301809640        0.2213814265       -0.0958785620
 C          2.9896942518       -0.6019888144       -1.0623105513
 C          3.6887994508       -1.8090257628       -1.6332900625
 C          4.2778113839       -2.8171851694       -0.6311097194
 C          3.5930448328       -2.8622649587        0.7431927099
 H          2.6417195686       -2.3295570222        0.7085350704
 H          3.3796873313       -3.9025974519        0.9961501381
 C          4.4580553473       -2.2765114326        1.8627096295
 H          4.1163532369       -2.6798353913        2.8190261188
 H          5.4892527529       -2.6073603562        1.7205053933
 C          4.4336070014       -0.7528392486        1.9806686056
 H          3.4627468504       -0.4256502361        2.3623853289
 H          5.1831952386       -0.4595019695        2.7196728554
 C          4.7014028631        0.0136458173        0.6754086700
 H          5.4574079351       -0.4868675431        0.0746106325
 H          5.0665120485        1.0098854290        0.9392363161
 H          4.2182323470       -3.8020080769       -1.0972759923
 H          5.3365949802       -2.6049345016       -0.4867147262
 H          2.9431740510       -2.3015150586       -2.2608769281
 H          4.4849407676       -1.4587641238       -2.2959964028
 O          1.8040968468       -0.4072574532       -1.7000379668
 C          0.9652544311        0.6482063611       -1.3810849247
 O         -0.0844909939        0.6743480642       -2.0510556864
 O          3.0039026567        2.1634896653        1.1956718107
 C          0.4807598696        2.6923951690        0.0280622087
 C         -0.6962419190        2.0913081363        0.7538006882
 C         -0.6010562796        1.8201513558        2.1157273724
 C         -1.6228139279        1.1668120318        2.7800513771
 C         -2.7513113567        0.7486076720        2.0957554117
 C         -2.8480492215        1.0045611770        0.7349144638
 C         -1.8398977621        1.6945028519        0.0772551954
 H         -1.9280255574        1.8772596750       -0.9815849515
 N         -3.9679056922        0.5332915817        0.0144857663
 S         -4.1777556766       -1.1304939394        0.0261520451
 O         -5.0588447812       -1.4155377160       -1.0838663678
 O         -4.6531682990       -1.5277415963        1.3282806959
 C         -2.5642980286       -1.8321417403       -0.2668008847
 C         -2.1361139531       -1.9841354149       -1.5697302806
 C         -0.8759646414       -2.5074389334       -1.8053043847
 C         -0.0650038922       -2.8573253261       -0.7377784925
 C         -0.5046762910       -2.6876026701        0.5656953505
 C         -1.7672026273       -2.1717753350        0.8076826545
 H         -2.1483330047       -2.0369936801        1.8065898798
 H          0.1320768506       -2.9554835742        1.3943525826
 H          0.9173099320       -3.2632483786       -0.9223029188
 H         -0.5263012479       -2.6275793277       -2.8179559636
 H         -2.7952608150       -1.7029685982       -2.3753176107
 H         -3.9689718762        0.8537239666       -0.9444145827
 H         -3.5461692822        0.2118401505        2.5880521850
 H         -1.5372271931        0.9710896339        3.8382373605
 H          0.2945596272        2.1140186472        2.6449269987
 H          1.0700004986        3.2757401818        0.7476832445
 C          0.0979592487        3.5894754212       -1.1294729205
 C         -0.5099280683        4.9291047787       -0.8430305647
 C          0.8861054489        4.8386855038       -1.3798984080
 H          1.0669455354        5.1366890811       -2.4018448697
 H          1.7059997978        5.0560227778       -0.7111942858
 H         -1.2898283430        5.2929173953       -1.4944172836
 H         -0.6382322947        5.2057420225        0.1925652663
 H         -0.2545499561        3.0492971269       -1.9991703140
