  62
        -98.94457515
 C         -1.8267666952       -1.4464092205       -0.6536408559
 C         -1.5157056672       -0.2345694266       -1.3167551286
 C         -2.4390314600        0.8868908574       -1.0779967679
 C         -3.4869558897        0.7226200021       -0.2530973737
 C         -4.4815195545        1.7890613834        0.1021567571
 C         -4.0640668766        2.5554316168        1.3641081561
 C         -2.6191060147        3.0549507777        1.3411959505
 H         -2.4588897584        3.6266165596        2.2586464582
 H         -1.9346890456        2.2035679589        1.3786935050
 C         -2.2644244425        3.9269515498        0.1287927227
 H         -1.6890140772        4.7874906572        0.4769454651
 H         -3.1746069923        4.3094427556       -0.3359915642
 C         -1.4092279272        3.2149155152       -0.9209138592
 H         -0.9932956817        3.9696817044       -1.5942431436
 H         -0.5737642975        2.7207062010       -0.4183989697
 C         -2.1435995901        2.1804153016       -1.7841100467
 H         -3.0604581015        2.6190848203       -2.1844370587
 H         -1.4911378525        1.9223006641       -2.6235196579
 H         -4.1830879304        1.8953998909        2.2266912158
 H         -4.7403284966        3.4036935439        1.4896643512
 H         -4.5808540520        2.4769563092       -0.7355236232
 H         -5.4455547339        1.3098228753        0.2831884573
 O         -3.7478472054       -0.4501105539        0.3807279695
 C         -2.9210554780       -1.5465905363        0.2093570344
 O         -3.2692087732       -2.5543283271        0.8592377551
 H          0.7098112873       -0.7381745149       -0.0458280248
 C          0.8154894524       -1.5955310298        0.5953107678
 C          0.0328193436       -2.7182028152        0.3632096432
 C          0.1754397240       -3.8192488621        1.1977089567
 C          1.0694338495       -3.7834877561        2.2539440246
 C          1.8182741604       -2.6488114128        2.5053937970
 C          1.6861197887       -1.5411660825        1.6720947054
 N          2.4394695963       -0.3862394318        1.9039965344
 S          1.9619536207        1.1569567460        1.4525215181
 O          2.5259107881        2.0104916895        2.4790467538
 O          0.5354014883        1.2491097639        1.2656741305
 C          2.8661831820        1.4298743279       -0.0581947469
 C          4.2004461081        1.7691119444        0.0746882936
 C          4.9646161735        1.9656511512       -1.0625676452
 C          4.3853855704        1.8190486391       -2.3145388370
 C          3.0472286855        1.4807351362       -2.4311888748
 C          2.2750109265        1.2822522889       -1.2956430484
 H          1.2338868321        1.0109381487       -1.3821308106
 H          2.5884613821        1.3635003930       -3.3999063279
 H          4.9784598831        1.9705927879       -3.2027505571
 H          6.0056069898        2.2308799651       -0.9711172055
 H          4.6053155182        1.8856948149        1.0663431939
 H          2.9597359697       -0.3794924229        2.7679203846
 H          2.4964305261       -2.6132723526        3.3445117497
 H          1.1711783408       -4.6422967088        2.9001644494
 H         -0.4352012786       -4.6944604778        1.0306622070
 C         -0.9770663314       -2.7051762921       -0.7564183829
 H         -1.6732705734       -3.5412475205       -0.5795738987
 C         -0.3566836881       -2.9160340568       -2.1296234888
 C          1.1023460554       -2.7454275557       -2.4141929922
 C          0.5057301697       -4.1184160193       -2.3783213400
 H          0.3855311935       -4.6585527381       -3.3051222975
 H          0.7416951453       -4.7423820298       -1.5293394034
 H          1.7505314299       -2.4482166224       -1.6047067076
 H          1.3761840452       -2.3202654882       -3.3673228998
 H         -1.0365993215       -2.6320729710       -2.9259605541
 O         -0.5322200323       -0.0754238241       -2.0843905328
