  62
        -98.94946584
 C          2.0480635066        0.3841289988       -0.3210777489
 C          1.3792531348        1.3030611620       -1.1627170641
 C          1.0098763772        2.5839972542       -0.5497634450
 C          1.2689457459        2.7968061363        0.7533815649
 C          0.9556003518        4.0497867118        1.5255745840
 C         -0.4915519161        4.1163781229        2.0326294647
 C         -1.5381891519        4.4347616072        0.9643699787
 H         -2.4626983419        4.6865728321        1.4879024735
 H         -1.2280918867        5.3177462168        0.4036196675
 C         -1.8224968969        3.2778360936       -0.0034127291
 H         -1.4723575236        2.3423978388        0.4411534294
 H         -2.9024971685        3.1749489061       -0.1385796142
 C         -1.2076135232        3.4500145753       -1.3923784853
 H         -1.6474445801        4.3246286600       -1.8774642275
 H         -1.4629278956        2.5732216766       -1.9910428421
 C          0.3185182945        3.6076042308       -1.4017663179
 H          0.6687987735        3.4707467513       -2.4282153869
 H          0.5911751613        4.6102023634       -1.0717871072
 H         -0.7391821980        3.1633380488        2.5076486232
 H         -0.5348613510        4.8940709558        2.7990852460
 H          1.6246197169        4.0564433922        2.3888794124
 H          1.1696894116        4.9261304461        0.9124944042
 O          1.8877022256        1.8765161689        1.5381114681
 C          2.2819078888        0.6494317903        1.0285925307
 O          2.8355950183       -0.0963612217        1.8600158142
 O          1.1054430745        1.0665177685       -2.3712000211
 C          2.4598465640       -0.9712356795       -0.8720784948
 C          1.8015050690       -2.0523222325       -0.0503911145
 C          2.4681757354       -3.1477261241        0.4799778372
 C          1.7943386740       -4.0424395251        1.2946424726
 C          0.4614778694       -3.8558716051        1.6101269419
 C         -0.2206382594       -2.7719629741        1.0652630664
 C          0.4451142942       -1.9101502065        0.2126498196
 H         -0.0802998028       -1.0681919239       -0.2064375036
 N         -1.5729118884       -2.5527413896        1.3535554660
 S         -2.3017914369       -1.0513903440        1.2391119433
 O         -1.3868955967        0.0375438909        1.4861419673
 O         -3.4349191303       -1.1466561040        2.1359924001
 C         -2.9068852103       -1.0323840141       -0.4360915295
 C         -3.9812269221       -1.8507100919       -0.7298775898
 C         -4.4672313274       -1.8844412316       -2.0261920348
 C         -3.8720569440       -1.1049073268       -3.0071712554
 C         -2.7973510274       -0.2868104478       -2.6973447823
 C         -2.3094751706       -0.2478252675       -1.4003062621
 H         -1.4732869092        0.3810785682       -1.1360285256
 H         -2.3250372187        0.3186840290       -3.4550318238
 H         -4.2469298465       -1.1323307021       -4.0180993936
 H         -5.3051102116       -2.5178026886       -2.2690911764
 H         -4.4193764059       -2.4315871966        0.0645224597
 H         -1.9555073195       -3.1132945066        2.0993752464
 H         -0.0480266092       -4.5344440906        2.2770972005
 H          2.3236799483       -4.8862545248        1.7110514146
 H          3.5166121378       -3.2913223787        0.2763397144
 H          2.0582539079       -1.0105953182       -1.8955700061
 C          3.9679711086       -1.0874736561       -0.9319413280
 C          4.6173653327       -1.9777160173       -1.9480955255
 C          4.6964270401       -0.4888862707       -2.0964845601
 H          5.6417740691        0.0005567450       -1.9163816541
 H          4.0998083651       -0.0163121744       -2.8629252622
 H          5.5130697399       -2.5114048939       -1.6683404965
 H          3.9717383283       -2.5200505427       -2.6219160533
 H          4.4288398351       -1.0005555853        0.0459339744
