  62
        -98.93875961
 C         -1.6962129197       -0.8313204205        0.1403370199
 C         -2.9923575796       -1.0482677211        0.6646132399
 C         -3.9298621603        0.0767462383        0.5495884794
 C         -3.5204322210        1.2285227483       -0.0121573610
 C         -4.3279794117        2.4898498978       -0.1694327316
 C         -5.5510006716        2.4022271167       -1.1027443016
 C         -6.8716373315        2.0913035262       -0.3874410815
 H         -6.7890154917        2.4037848866        0.6542536083
 H         -7.6634412418        2.6962420455       -0.8339658118
 C         -7.3368533906        0.6331591059       -0.4480301210
 H         -8.1281425905        0.5036209657        0.2935661890
 H         -7.7729154404        0.4381826652       -1.4305052309
 C         -6.2575416900       -0.4230052934       -0.2092991905
 H         -5.6287903299       -0.5137861534       -1.0983673805
 H         -6.7490564694       -1.3894487936       -0.0805900702
 C         -5.3438875802       -0.1470843024        1.0005831794
 H         -5.7059097407        0.7080447276        1.5693670491
 H         -5.3268616497       -1.0175234021        1.6595697398
 H         -5.6481120422        3.3745976664       -1.5882613320
 H         -5.3592345711        1.6690266765       -1.8858104913
 H         -4.6501076320        2.8261782780        0.8186442483
 H         -3.6317728421        3.2324437380       -0.5643334018
 O         -2.2562254210        1.4017581889       -0.4866495110
 C         -1.3194168404        0.3809795595       -0.4352332206
 O         -0.2111203106        0.6783309799       -0.9186866106
 H          1.9958158710       -1.9567333586       -0.5470308495
 C          1.8218945207       -1.5817107583        0.4470600703
 C          0.5402469906       -1.5097956289        0.9685142202
 C          0.3725793703       -1.0122003085        2.2594570300
 C          1.4567396900       -0.5887918975        3.0021685399
 C          2.7337498600       -0.6433814870        2.4695656700
 C          2.9129182404       -1.1416795774        1.1860852702
 N          4.2003280405       -1.2300579068        0.6202030803
 S          4.5150583701       -0.4101772572       -0.8072029000
 O          3.6579167704       -0.8990175981       -1.8543274198
 O          5.9376122802       -0.5741088264       -1.0170051898
 C          4.1673625490        1.2964461327       -0.4213314507
 C          5.2223652085        2.1121765635       -0.0578320409
 C          4.9640218277        3.4203653535        0.3159512385
 C          3.6576888174        3.8864643027        0.3305107383
 C          2.6115626379        3.0533583520       -0.0332597814
 C          2.8612841487        1.7429737920       -0.4133619709
 H          2.0542331692        1.0871184514       -0.7004953007
 H          1.5917380577        3.4046756714       -0.0257881916
 H          3.4528663668        4.9037924027        0.6251195879
 H          5.7774634373        4.0700168941        0.5964442283
 H          6.2211147188        1.7071181041       -0.0878906107
 H          4.9429262503       -1.0361306861        1.2783364403
 H          3.5835284998       -0.3072206962        3.0443370699
 H          1.3085275397       -0.2068225672        4.0008719198
 H         -0.6265006898       -0.9629214889        2.6709471900
 C         -0.6794183891       -1.9565273299        0.2024246504
 H         -1.1680921586       -2.7596547700        0.7740643306
 C         -0.3717241587       -2.4702723603       -1.1879760194
 C          0.0823718922       -3.8850443301       -1.3817880888
 C         -1.2924468781       -3.4731824311       -1.8129780291
 H         -1.5011134581       -3.3936371816       -2.8694192991
 H         -2.1351363979       -3.8065830713       -1.2248330390
 H          0.8222560623       -4.0870119099       -2.1418434287
 H          0.1736104025       -4.5048952997       -0.5026383386
 H          0.0491709309       -1.7087126903       -1.8360000397
 O         -3.3453131290       -2.1263766211        1.2135326803
