  62
        -98.94690331
 C         -2.0389940164       -1.0813664589       -0.5207922512
 C         -1.4862612402        0.0476895146       -1.1713995263
 C         -2.2082329779        1.3163561912       -0.9904234612
 C         -3.3165756755        1.3495945928       -0.2309577786
 C         -4.1132324499        2.5826619987        0.0804199966
 C         -3.6258399787        3.2519293649        1.3726151835
 C         -2.1122123989        3.4614918959        1.4331087417
 H         -1.8936319849        3.9816246588        2.3688619412
 H         -1.6089686394        2.4924409229        1.4866228114
 C         -1.5312151055        4.2599893484        0.2579666727
 H         -0.8220274218        4.9911530201        0.6519211899
 H         -2.3251957079        4.8137516400       -0.2456959188
 C         -0.7718030465        3.4083825088       -0.7611408025
 H         -0.0640379805        2.7659633686       -0.2305530429
 H         -0.1942397085        4.0785023433       -1.4042541582
 C         -1.6434426479        2.5318778024       -1.6702830837
 H         -2.4419207802        3.1348118120       -2.1083292152
 H         -1.0113710641        2.1584188871       -2.4811891438
 H         -4.1306282584        4.2148781699        1.4730904800
 H         -3.9172083676        2.6254000085        2.2189799217
 H         -4.0356477794        3.2788586599       -0.7524432578
 H         -5.1583733885        2.2932487262        0.2046466534
 O         -3.8228380416        0.2472875741        0.3788546793
 C         -3.1928879090       -0.9788426394        0.2623712463
 O         -3.7583627766       -1.9015834038        0.8848730525
 H          0.7939147447       -0.9561208423       -0.1415541763
 C          0.6787796834       -1.7125156486        0.6160402280
 C         -0.3930180555       -2.5926592434        0.5499750018
 C         -0.5254848027       -3.5646939402        1.5338584061
 C          0.3862904597       -3.6413901338        2.5716352644
 C          1.4267448676       -2.7355240385        2.6583527768
 C          1.5690343947       -1.7577234737        1.6781297099
 N          2.6140666571       -0.8281419045        1.7545543542
 S          2.4213102606        0.7827037934        1.3142803702
 O          3.2014422555        1.5153837827        2.2928645384
 O          1.0298642365        1.1452519154        1.2127708787
 C          3.2677333827        0.8779327287       -0.2494249212
 C          2.5746815168        0.9151753486       -1.4410592039
 C          3.2918641312        0.9649185165       -2.6278262964
 C          4.6770085684        0.9755193595       -2.6045217138
 C          5.3588904805        0.9392790299       -1.3969375325
 C          4.6499278986        0.8901683550       -0.2089548774
 H          5.1381306105        0.8754015086        0.7513798094
 H          6.4368725740        0.9484378592       -1.3795575895
 H          5.2271780879        1.0127172182       -3.5316807654
 H          2.7554668352        0.9902051990       -3.5630479752
 H          1.4955815169        0.8933647917       -1.4437192846
 H          3.1775150592       -0.9048616927        2.5886269516
 H          2.1230929635       -2.7762325227        3.4825643845
 H          0.2743054907       -4.4003946917        3.3311775033
 H         -1.3617699028       -4.2471585110        1.4938181326
 C         -1.4152101903       -2.4695465828       -0.5559368901
 H         -2.2333343461       -3.1676169496       -0.3297817008
 C         -0.8186765145       -2.8534412011       -1.8948869998
 C         -0.6880498717       -4.3058108832       -2.2384033133
 C         -1.7007383387       -3.4560685553       -2.9446314612
 H         -1.5271632384       -3.1901570479       -3.9763194947
 H         -2.7440574273       -3.5959660917       -2.7004393378
 H         -1.0463392264       -5.0260065349       -1.5183690763
 H          0.1844098804       -4.6276857670       -2.7856814493
 H         -0.0372473700       -2.1844111062       -2.2279193057
 O         -0.4485313981        0.0254043830       -1.8846749327
