  62
        -98.93355484
 C          1.9857279126        0.7079653289        0.9084256906
 C          2.8645112624        1.0758662574       -0.1389074841
 C          4.2529472612        0.5877224230       -0.0246625745
 C          4.6125771111       -0.1647542673        1.0279411136
 C          5.9703601493       -0.7307528166        1.3613950371
 C          6.7807406784       -1.3533183815        0.2162171556
 C          5.9438612342       -2.0412909529       -0.8721853295
 H          6.3386553184       -3.0449135692       -1.0414849719
 H          4.9107310081       -2.1511287802       -0.5374597349
 C          5.9713091344       -1.2947107783       -2.2081621062
 H          6.9952654403       -0.9704634808       -2.4067448954
 H          5.6886004940       -1.9888211447       -3.0034118116
 C          5.0366022363       -0.0897867084       -2.3055863838
 H          5.2344955444        0.4127459881       -3.2553959089
 H          3.9979641122       -0.4301223030       -2.3335477402
 C          5.1604548895        0.9382471491       -1.1688846927
 H          4.8104518348        1.9019358652       -1.5485574734
 H          6.1928582232        1.0464096009       -0.8457852075
 H          7.4049283970       -0.5898459768       -0.2461716238
 H          7.4579340855       -2.0799565686        0.6685397391
 H          5.7812380126       -1.4859919165        2.1282306377
 H          6.5629998183        0.0608912957        1.8293541430
 O          3.7301804730       -0.5022565539        2.0116901744
 C          2.4122229009       -0.0889678608        1.9730289286
 O          1.7237600579       -0.4823971282        2.9373716683
 O          2.5337822296        1.7837478174       -1.1230932854
 C          0.5233575640        1.1212857591        0.9534758817
 C         -0.3149845053        0.1384132702        0.1785033518
 C         -0.0683050933       -0.1140480386       -1.1678926812
 C         -0.8471237875       -1.0180483084       -1.8666390158
 C         -1.8879881371       -1.6838877242       -1.2420522994
 C         -2.1414419218       -1.4386234070        0.1001652253
 C         -1.3577114456       -0.5311982442        0.8011232756
 H         -1.5515157603       -0.3546809073        1.8507116021
 N         -3.2253827960       -2.0906439707        0.7265492364
 S         -4.7317364121       -1.7319844465        0.0763993711
 O         -5.6888739023       -2.0497694989        1.1113861194
 O         -4.8867986478       -2.4313080413       -1.1731444970
 C         -4.6609935242        0.0275503935       -0.2038375358
 C         -4.8532629434        0.8687756785        0.8743008153
 C         -4.6953116681        2.2335337810        0.6963288438
 C         -4.3352903381        2.7299787369       -0.5473779968
 C         -4.1479875191        1.8722744803       -1.6198532604
 C         -4.3112986095        0.5066564960       -1.4502095270
 H         -4.1768385889       -0.1924275396       -2.2589713508
 H         -3.8682668883        2.2620850091       -2.5852756472
 H         -4.1952637403        3.7908056112       -0.6797900373
 H         -4.8435736454        2.9042852437        1.5275719406
 H         -5.1327747159        0.4435971136        1.8252843126
 H         -3.2449345530       -1.9539874298        1.7275147439
 H         -2.5127673632       -2.3833589261       -1.7738835524
 H         -0.6436495373       -1.2058508344       -2.9100739235
 H          0.7372378142        0.4123347406       -1.6568824761
 H          0.2397259587        1.0344813033        2.0138527348
 C          0.2928253887        2.5686649915        0.5350325191
 C         -0.5908461728        2.9716467315       -0.6045566180
 C         -1.0378174726        3.2076837961        0.8042131523
 H         -1.0606828942        4.2176438128        1.1841481089
 H         -1.8209607262        2.5709268609        1.1888121542
 H         -0.2782576029        3.8157251886       -1.1998752306
 H         -1.0872572035        2.1983474895       -1.1693798384
 H          1.1690633951        3.1854285798        0.7015972147
