  62
        -98.94091363
 C         -1.9100147209       -1.3121448994        0.6465389996
 C         -1.7887106705        0.0304295106        1.0906115195
 C         -2.9821371201        0.8716083511        0.9636877790
 C         -4.1222182902        0.3362687015        0.4911068687
 C         -5.4433327298        1.0436130420        0.3534415282
 C         -5.5949583691        1.8445400719       -0.9467851119
 C         -4.7611167185        3.1240312016       -1.0203553417
 H         -5.1206815480        3.6921981017       -1.8805448819
 H         -4.9456512586        3.7280328318       -0.1314036119
 C         -3.2536655086        2.8837837010       -1.1808565012
 H         -3.0818731289        1.8555624409       -1.5077389211
 H         -2.8619324281        3.5367402607       -1.9638574112
 C         -2.4285707589        3.1449058308        0.0794026690
 H         -2.4766068285        4.2055874608        0.3358112989
 H         -1.3886425889        2.8942247103       -0.1443791707
 C         -2.8624475296        2.3263767011        1.3029874689
 H         -2.0966947198        2.4251687308        2.0765164892
 H         -3.8055110196        2.7062659215        1.6956280486
 H         -5.3420567691        1.1953573118       -1.7882671117
 H         -6.6490761390        2.1154277024       -1.0414899722
 H         -6.2131540501        0.2690170723        0.3720012581
 H         -5.5943275398        1.7035620622        1.2083450181
 O         -4.2068032106       -0.9592167685        0.0945883988
 C         -3.0988256709       -1.8044684090        0.1072067093
 O         -3.3319550012       -2.9291079389       -0.3701655207
 H          1.9966176089       -1.5775987110        0.8679106908
 C          1.6160516293       -1.5318079809       -0.1408386193
 C          0.2801191293       -1.8027362304       -0.3922038997
 C         -0.1857089103       -1.7350131703       -1.7016717598
 C          0.6736983702       -1.4025348408       -2.7322231396
 C          2.0042494602       -1.1193272313       -2.4760452892
 C          2.4802589298       -1.1835299514       -1.1713006390
 N          3.8322578098       -0.9339020019       -0.8965683786
 S          4.3396581297       -0.0510312819        0.4302786714
 O          5.7634933598        0.0990178975        0.2262853919
 O          3.9370087491       -0.7121344417        1.6446097414
 C          3.5518074304        1.5415612784        0.2774435610
 C          4.2482406810        2.5472013380       -0.3667948688
 C          3.6511404616        3.7866011682       -0.5248598192
 C          2.3692986115        4.0005656488       -0.0397716596
 C          1.6854483009        2.9812926791        0.6030508303
 C          2.2747276103        1.7365636789        0.7628780806
 H          1.7410522898        0.9394105392        1.2548621205
 H          0.6890134108        3.1320407596        0.9870619200
 H          1.9016077919        4.9651648190       -0.1598665498
 H          4.1846700320        4.5804252480       -1.0224769491
 H          5.2476436010        2.3417400676       -0.7149367985
 H          4.3860767001       -0.6994584022       -1.7076008885
 H          2.6720390805       -0.8546039616       -3.2816138390
 H          0.3033159105       -1.3563242907       -3.7452764897
 H         -1.2267213103       -1.9493916999       -1.8986050901
 C         -0.6478222012       -2.1504949499        0.7446047901
 H         -0.1536942214       -1.8220510100        1.6745762002
 C         -0.8897100119       -3.6456766198        0.8729142401
 C         -0.6219057419       -4.6205410600       -0.2299894397
 C          0.2769374777       -4.5841220702        0.9673760506
 H          0.2302558871       -5.3961553302        1.6771181307
 H          1.2646107079       -4.1653976507        0.8404479409
 H         -1.3085210222       -5.4452254897       -0.3436217598
 H         -0.2395578415       -4.2421809402       -1.1649809396
 H         -1.7412520522       -3.8652647294        1.5080123199
 O         -0.7256482304        0.4978626802        1.5792004698
