  62
        -98.94392484
 C         -1.8357469837        1.1159558925       -0.2014475943
 C         -2.2017844260        0.0943403349        0.7074107424
 C         -3.6388927347       -0.0129729786        1.0012811828
 C         -4.4965572540        0.8529705846        0.4309531494
 C         -5.9874205792        0.8221266989        0.6010392389
 C         -6.6524330140       -0.0314173901       -0.4879471268
 C         -6.0108895272       -1.4067599030       -0.6720453200
 H         -6.5803311050       -1.9310131214       -1.4425496489
 H         -4.9952160909       -1.2793378165       -1.0536442280
 C         -5.9669408177       -2.2623833608        0.6016763156
 H         -6.6771268951       -1.8752368875        1.3332090584
 H         -6.2800277764       -3.2783872157        0.3521920743
 C         -4.5837391946       -2.3691702306        1.2469130837
 H         -3.8484742141       -2.6668763509        0.4946513859
 H         -4.6194036862       -3.1617784106        1.9992605871
 C         -4.0718439237       -1.1014150516        1.9425687688
 H         -4.8272929543       -0.7330347873        2.6397695010
 H         -3.1796992667       -1.3741050875        2.5144004622
 H         -7.7077309661       -0.1510806194       -0.2363676899
 H         -6.5878572030        0.5061304189       -1.4367657544
 H         -6.2273534561        0.4256718978        1.5856020790
 H         -6.3629768467        1.8441898999        0.5290394408
 O         -4.1023952779        1.8374943896       -0.4165157081
 C         -2.7695907197        1.9858479991       -0.7639713493
 O         -2.5467606966        2.9111510595       -1.5705596885
 H          2.0349400401        0.0956590839       -0.0086223638
 C          1.4468755069       -0.4532052391       -0.7246506573
 C          0.1994567693        0.0131115496       -1.1104386740
 C         -0.5290184173       -0.7228833237       -2.0416074364
 C         -0.0367180827       -1.9110528142       -2.5441391971
 C          1.1959552690       -2.3879862268       -2.1347212569
 C          1.9419429615       -1.6515025805       -1.2224990282
 N          3.2166766149       -2.0859835155       -0.8426111312
 S          3.9217412867       -1.6834872027        0.6143065530
 O          5.0315788652       -2.6069321582        0.7303811281
 O          2.9826423110       -1.6888064626        1.7104507128
 C          4.5687433658       -0.0435710221        0.3600299807
 C          4.5831261849        0.8374355831        1.4230177120
 C          5.1311887989        2.0982443850        1.2441858125
 C          5.6516969480        2.4551749212        0.0100547678
 C          5.6306353937        1.5584865278       -1.0472247714
 C          5.0895595294        0.2946702439       -0.8732789937
 H          5.0580757047       -0.4253031117       -1.6736514103
 H          6.0348789489        1.8401491030       -2.0061351306
 H          6.0741799436        3.4379122246       -0.1273680801
 H          5.1490200627        2.7959897425        2.0664997916
 H          4.1552625622        0.5229065906        2.3620583518
 H          3.4781164320       -3.0076094800       -1.1585020247
 H          1.5775891913       -3.3220278719       -2.5178707694
 H         -0.6191411600       -2.4760858671       -3.2565705121
 H         -1.4959250673       -0.3538012871       -2.3568443017
 C         -0.3786754962        1.3033004187       -0.5830322222
 H         -0.3723639497        2.0403309721       -1.3999606175
 C          0.3947987406        1.8739440092        0.5880517682
 C          1.5578598112        2.7882374220        0.3497150168
 C          0.2714610179        3.3366473298        0.8879851576
 H          0.2329646127        3.6496567713        1.9205677901
 H         -0.3535122235        3.9230710730        0.2300771752
 H          2.4072181824        2.7250878275        1.0128572411
 H          1.8149108839        3.0126469317       -0.6743450077
 H          0.4414705685        1.1905704364        1.4293764727
 O         -1.3754023679       -0.6898826040        1.2436136440
