  62
        -98.94360030
 C         -1.8218480689       -0.3292341280       -0.2787101796
 C         -2.9753179263       -0.6411931971       -1.0363694073
 C         -4.2489824841       -0.6210754151       -0.3050978732
 C         -4.2469770444       -0.3351808697        1.0100657614
 C         -5.4760244663       -0.2318974512        1.8652076550
 C         -6.0151627976        1.2051700146        1.8930170849
 C         -6.1590755645        1.8381406550        0.5090010077
 H         -6.5752477140        2.8379436367        0.6502853310
 H         -5.1670788732        1.9620449582        0.0687469388
 C         -7.0475607635        1.0474513708       -0.4614606391
 H         -7.6711689829        0.3460816161        0.0940782619
 H         -7.7175488308        1.7439006635       -0.9700714316
 C         -6.2816656787        0.2919559797       -1.5490720636
 H         -5.5861683109        0.9720573924       -2.0472988471
 H         -7.0012202798       -0.0469157524       -2.2992611836
 C         -5.4974061507       -0.9396118339       -1.0789465148
 H         -6.1531096575       -1.5947844780       -0.5016520947
 H         -5.1669923502       -1.4826810430       -1.9694396388
 H         -6.9841458165        1.2002785104        2.3955112877
 H         -5.3300527363        1.8201237293        2.4809771792
 H         -6.2369979796       -0.9091213068        1.4821931556
 H         -5.2137023646       -0.5317787842        2.8811538846
 O         -3.1160421640       -0.0593869354        1.7081493577
 C         -1.8762701482       -0.0425875526        1.0854788920
 O         -0.9250875667        0.2326669842        1.8397914475
 O         -2.9399691500       -0.9293728451       -2.2636644448
 C         -0.4700580622       -0.3209032172       -0.9674077375
 C          0.4637727941       -1.3142151217       -0.3211577140
 C         -0.0097644451       -2.5860418831       -0.0074590311
 C          0.8153140738       -3.5215607100        0.5844347625
 C          2.1368763863       -3.2167669339        0.8602510287
 C          2.6244856344       -1.9568911627        0.5385939356
 C          1.7885301323       -1.0142880046       -0.0457423318
 H          2.1871766374       -0.0437173082       -0.2881898787
 N          3.9538356794       -1.6115427161        0.8181703368
 S          4.8247504068       -0.6607617082       -0.2445168375
 O          4.4571156513       -0.9175492901       -1.6173842406
 O          6.2094939668       -0.9121655397        0.0956305935
 C          4.4238589785        1.0168580838        0.1966215115
 C          4.2192497335        1.3371681464        1.5239013993
 C          3.9503702966        2.6544461314        1.8596502593
 C          3.8999176282        3.6253824923        0.8709954935
 C          4.1143805030        3.2887350104       -0.4564737053
 C          4.3791470281        1.9720428971       -0.7996684423
 H          4.5403214532        1.6638177549       -1.8205876432
 H          4.0745136034        4.0451161876       -1.2243796137
 H          3.6903981820        4.6497141094        1.1362751396
 H          3.7787209929        2.9188801435        2.8906865933
 H          4.2597866141        0.5589069084        2.2675186677
 H          4.5164859140       -2.3501037725        1.2140294123
 H          2.7837383901       -3.9471272017        1.3221284540
 H          0.4297776558       -4.5001787711        0.8284864641
 H         -1.0400408487       -2.8294925349       -0.2292109013
 H         -0.6632373135       -0.6598345238       -1.9968427509
 C          0.0838318213        1.0879650961       -1.0156430883
 C          0.9906615748        1.5106623559       -2.1313225045
 C         -0.4152217852        2.0254324346       -2.0726125473
 H         -0.5752615819        3.0604342482       -1.8108470243
 H         -1.1339569677        1.6368550525       -2.7794410178
 H          1.7956027434        2.1936215819       -1.9055951353
 H          1.2366079164        0.7754881698       -2.8830074390
 H          0.2643792243        1.4961821100       -0.0272557040
