  62
        -98.94062390
 C          1.9236998372        0.8410055843        0.7229395905
 C          1.9059056700        0.1956150871       -0.5385858609
 C          2.2158913744       -1.2403882510       -0.5239810123
 C          2.3984602765       -1.8778693239        0.6449752052
 C          2.6891773955       -3.3437470603        0.8219122705
 C          4.1719552481       -3.7103304924        0.6674643365
 C          4.7100547563       -3.6610346085       -0.7631508647
 H          5.6877700558       -4.1467146103       -0.7536887486
 H          4.0603457472       -4.2471869241       -1.4136407581
 C          4.8683197968       -2.2442749292       -1.3323791010
 H          4.8521419168       -1.5198347242       -0.5148653939
 H          5.8410098193       -2.1542745332       -1.8209013524
 C          3.8069029392       -1.8522423881       -2.3604671512
 H          3.8972907156       -2.4901125354       -3.2423250108
 H          3.9935317127       -0.8208302248       -2.6700913986
 C          2.3650059746       -1.9376823058       -1.8421454837
 H          1.7072165616       -1.4349084429       -2.5555020652
 H          2.0538909593       -2.9788339470       -1.7576216441
 H          4.7625270308       -3.0460939385        1.3026811663
 H          4.2956086730       -4.7279672141        1.0448952224
 H          2.3723470561       -3.6018260074        1.8349441957
 H          2.0916666361       -3.9208858137        0.1153744104
 O          2.3170663404       -1.2400341183        1.8444517357
 C          2.0891401805        0.1250262695        1.9099234621
 O          2.0526573707        0.5792036114        3.0728733202
 H         -0.7270186004        1.1417092050        1.0647910905
 C         -0.7497861597        1.9076790544        0.3012874429
 C          0.3955047653        2.6530294767        0.0471621029
 C          0.3475792782        3.6335121282       -0.9339298657
 C         -0.8148858308        3.8382820220       -1.6573291677
 C         -1.9400067455        3.0692440558       -1.4277014326
 C         -1.9047213842        2.0925871719       -0.4375454366
 N         -3.0393291020        1.3083549665       -0.1597410327
 S         -2.8164938253       -0.2766581913        0.3746189225
 O         -2.5424293748       -0.2537213561        1.7910260954
 O         -1.8554044416       -0.9685026254       -0.4550485458
 C         -4.4556132113       -0.9240341719        0.0981200566
 C         -4.7146052266       -1.6601869869       -1.0423766029
 C         -6.0016124117       -2.1263779364       -1.2616764075
 C         -7.0028939475       -1.8465286365       -0.3440071458
 C         -6.7276275719       -1.1067502730        0.7966401230
 C         -5.4428254062       -0.6393088925        1.0227445112
 H         -5.1778233804       -0.0690483954        1.8977310489
 H         -7.5076633722       -0.8932551938        1.5094059253
 H         -8.0034972338       -2.2095866515       -0.5175448694
 H         -6.2172932398       -2.7045565472       -2.1456529126
 H         -3.9021561888       -1.8580377133       -1.7232693694
 H         -3.7325688128        1.3533361784       -0.8945748795
 H         -2.8373080487        3.2161128779       -2.0094546450
 H         -0.8378955633        4.5965323454       -2.4254242924
 H          1.2269940228        4.2157385927       -1.1546924775
 C          1.6223174379        2.3242059351        0.8622119619
 H          1.3610326519        2.4598068601        1.9256812596
 C          2.8066767140        3.2378038650        0.5857703173
 C          4.2120335782        2.7551179034        0.7840255154
 C          3.7082688537        3.0483969708       -0.5954650434
 H          4.0827780772        3.9279131854       -1.0986065100
 H          3.4962649621        2.2228637291       -1.2555286034
 H          4.3474786115        1.7224650850        1.0726040780
 H          4.9283823638        3.4298714330        1.2281794649
 H          2.6060060559        4.2612253434        0.8876966410
 O          1.6569654226        0.7752278587       -1.6269899865
