  62
        -98.94238456
 C          0.7579055250        1.4981614761        0.1606606900
 C          1.4168860062        0.4727492059        0.8739766825
 C          2.3091843098       -0.4013173762        0.0938365383
 C          2.4050684978       -0.2225041752       -1.2350978424
 C          3.1740079810       -1.0403151965       -2.2443334863
 C          4.5745351646       -1.5277332466       -1.8552166337
 C          5.3802685804       -0.5420713326       -0.9965879839
 H          6.3585861744       -0.3882438568       -1.4554504397
 H          4.8759917262        0.4255003591       -0.9707174048
 C          5.6021107149       -1.0401580361        0.4329078518
 H          6.4488114933       -0.5012634477        0.8645683329
 H          5.8707716122       -2.0980943344        0.3978419385
 C          4.4172570684       -0.8541933049        1.3791303196
 H          4.2712224973        0.2099541615        1.5829056810
 H          4.6693997648       -1.3313189888        2.3290774328
 C          3.0751643349       -1.4219573869        0.8869477254
 H          3.2160910337       -2.3466752821        0.3319668112
 H          2.4610482661       -1.6286020152        1.7672512750
 H          5.1080803618       -1.7230801278       -2.7871425300
 H          4.4987504472       -2.4801450525       -1.3328215053
 H          3.2413605183       -0.4045891841       -3.1310266352
 H          2.5524019236       -1.8991217683       -2.5184108081
 O          1.7376904263        0.7715386976       -1.8865188154
 C          0.8956333821        1.6435660757       -1.2190638957
 O          0.3520962582        2.4952662858       -1.9490310746
 O          1.2535027652        0.2805390495        2.1094300915
 C         -0.2169334176        2.4006906735        0.8962389241
 C         -1.5900094455        2.2119804369        0.3000698389
 C         -2.4361796801        3.2554659032       -0.0491965532
 C         -3.6526317163        2.9928178264       -0.6564807464
 C         -4.0390667404        1.6968799825       -0.9438060094
 C         -3.2056508601        0.6444804881       -0.5802192911
 C         -2.0121642212        0.9086938007        0.0678138404
 H         -1.3692013866        0.0880006396        0.3511341432
 N         -3.5566862250       -0.6875641151       -0.8426141141
 S         -2.3652641769       -1.8212969494       -1.1515037124
 O         -1.2323717514       -1.2627189316       -1.8527485009
 O         -3.0658047861       -2.8892301496       -1.8368830817
 C         -1.8885233314       -2.4068352107        0.4599917866
 C         -0.5582943795       -2.6654198999        0.7215456163
 C         -0.2061001946       -3.1737291408        1.9617452108
 C         -1.1842355645       -3.4068486767        2.9153183726
 C         -2.5162548449       -3.1395818161        2.6376183366
 C         -2.8762557337       -2.6401808986        1.3966627284
 H         -3.9002860595       -2.4238843908        1.1422332549
 H         -3.2737259972       -3.3195027354        3.3833817876
 H         -0.9039268080       -3.7971664116        3.8809270711
 H          0.8296204164       -3.3802254425        2.1782389574
 H          0.1754981291       -2.4482160465       -0.0400044006
 H         -4.3681523435       -0.8136279963       -1.4296453075
 H         -4.9712192800        1.4973990836       -1.4499601854
 H         -4.2992872966        3.8122880463       -0.9314948093
 H         -2.1374970811        4.2741375263        0.1362651202
 H         -0.2322255638        2.0341503569        1.9335655888
 C          0.2591432907        3.8372680826        0.8891784319
 C         -0.1258491061        4.7660978745        2.0008833515
 C          1.2826128737        4.2661117685        1.8962143036
 H          2.0550137837        4.9534723171        1.5853178532
 H          1.6179793543        3.5251008283        2.6070469556
 H         -0.3192551076        5.8013551545        1.7637512470
 H         -0.7457530812        4.3697108372        2.7905499563
 H          0.3429525064        4.2410799139       -0.1137184947
