  62
        -98.94322065
 C         -1.1854584038       -1.6148687349       -0.3232610099
 C         -0.0126046407       -1.6711309071       -1.1085881718
 C          1.1512673423       -2.3521829639       -0.5127557140
 C          1.0445696998       -2.8425504905        0.7356978417
 C          2.1133880052       -3.5599192574        1.5146027886
 C          3.1453523851       -2.6007244675        2.1433937581
 C          3.4356510079       -1.3365476801        1.3347013114
 H          2.4883649073       -0.8397375260        1.1128303694
 H          3.9959033860       -0.6496214864        1.9761451311
 C          4.2498360514       -1.5459739242        0.0574124151
 H          4.2786459048       -0.5949206961       -0.4809064284
 H          5.2758546774       -1.7958696143        0.3403484424
 C          3.7559954382       -2.6390686635       -0.8884100462
 H          4.4203604442       -2.6403846466       -1.7578847823
 H          3.8639518827       -3.6105479403       -0.4131695243
 C          2.3402254965       -2.4617470553       -1.4351202128
 H          2.1322977959       -3.2963545284       -2.1166656274
 H          2.3055771748       -1.5590990330       -2.0540862631
 H          2.7542061736       -2.2766037744        3.1103909874
 H          4.0737189909       -3.1465491951        2.3195322848
 H          1.6112509919       -4.1051186167        2.3164413347
 H          2.5944395111       -4.2894258283        0.8676370456
 O         -0.0865709517       -2.7137719384        1.4815391476
 C         -1.2197308867       -2.0937166876        0.9855440889
 O         -2.1744332725       -2.0494152262        1.7858145880
 O          0.0619958223       -1.1752500867       -2.2662102957
 C         -2.4189660987       -0.9310501889       -0.8891243438
 C         -2.7190218032        0.2879157065       -0.0531435017
 C         -3.9501527219        0.5517408411        0.5305237568
 C         -4.1105685725        1.6604211498        1.3446403508
 C         -3.0520820625        2.5103450196        1.6057348693
 C         -1.8192101762        2.2633575898        1.0103499465
 C         -1.6748130674        1.1789327397        0.1631885142
 H         -0.7190162804        0.9887007497       -0.3017658921
 N         -0.7213611316        3.1041907325        1.2396837283
 S          0.8343075516        2.4855497629        1.2046845563
 O          0.8914559382        1.1153089122        1.6562722160
 O          1.6095581156        3.4389849754        1.9727030671
 C          1.3056996989        2.6231143943       -0.5057552844
 C          1.1026248342        3.8332855830       -1.1400467920
 C          1.4859043056        3.9669071123       -2.4643544462
 C          2.0656203120        2.8957099806       -3.1278996049
 C          2.2670314496        1.6896737820       -2.4757862704
 C          1.8844033000        1.5502066368       -1.1513156867
 H          2.0092843327        0.6227952860       -0.6150487082
 H          2.7084990722        0.8525929354       -2.9928816711
 H          2.3618460441        2.9989062093       -4.1598563728
 H          1.3303521290        4.9030192431       -2.9760500876
 H          0.6518713150        4.6418860299       -0.5894541365
 H         -0.8479773754        3.7878185444        1.9712951215
 H         -3.1718472161        3.3542934361        2.2678984323
 H         -5.0700351336        1.8527385839        1.8005842171
 H         -4.7783196300       -0.1174292823        0.3652228984
 H         -2.1323579215       -0.5977222773       -1.8975006513
 C         -3.5750566070       -1.9007157253       -1.0006863049
 C         -4.6574987556       -1.6658144097       -2.0105116160
 C         -3.6735986145       -2.7777280208       -2.2116125402
 H         -4.0093384869       -3.7958612861       -2.0837542793
 H         -2.9152030475       -2.6606205775       -2.9717954694
 H         -5.6724801355       -1.9224816845       -1.7474880738
 H         -4.5712019179       -0.7933690927       -2.6400683275
 H         -3.8481696018       -2.3349284497       -0.0455300818
