  62
        -98.93721327
 C         -2.4266400072       -1.1068775375       -0.0587490528
 C         -3.5100569738       -0.7479067683        0.7782362118
 C         -4.5103993598        0.1839790917        0.2238012405
 C         -4.3401716100        0.6409834564       -1.0308189209
 C         -5.1935073963        1.6214346283       -1.7906393788
 C         -4.9787094337        3.0729777535       -1.3327155831
 C         -4.9247716546        3.2679532164        0.1801962734
 H         -4.1212552929        2.6546110842        0.5921558559
 H         -4.6647338168        4.3125096283        0.3708541584
 C         -6.2253024590        2.9679255172        0.9217548143
 H         -7.0181874717        3.6076317250        0.5277982486
 H         -6.0705809043        3.2386539836        1.9693535523
 C         -6.7038560079        1.5151614297        0.8738625722
 H         -7.1733360537        1.2868550327       -0.0792166350
 H         -7.4804870733        1.4034728327        1.6361799409
 C         -5.6296924657        0.4800918301        1.1928657485
 H         -5.1467594055        0.7445768251        2.1404535891
 H         -6.1187095137       -0.4837202921        1.3795081997
 H         -4.0288793224        3.4201831368       -1.7466332150
 H         -5.7755252150        3.6884358229       -1.7537003094
 H         -4.9023683412        1.5415615193       -2.8403568579
 H         -6.2402097079        1.3422418947       -1.7154586053
 O         -3.2768812281        0.2716359379       -1.7998370714
 C         -2.2986337432       -0.5954038702       -1.3492852495
 O         -1.4013121259       -0.8252480635       -2.1832220435
 O         -3.6422835998       -1.1862191933        1.9527999316
 C         -1.3763323541       -2.0530865575        0.4987577793
 C         -0.1027233403       -1.2779772123        0.7304294493
 C          0.0469855248       -0.5510837297        1.9083677980
 C          1.1863386970        0.1973395607        2.1364441911
 C          2.1968219743        0.2450849503        1.1916034315
 C          2.0551705386       -0.4717575365        0.0115105458
 C          0.9158927442       -1.2354712876       -0.2087978150
 H          0.8124153116       -1.7765592735       -1.1362579689
 N          3.0635717811       -0.4056446988       -0.9641888673
 S          4.6522676524       -0.6759263075       -0.5036764512
 O          5.3247115231       -1.1300056022       -1.7014424705
 O          4.7290060208       -1.5484592388        0.6453547082
 C          5.2593712185        0.9436161290       -0.0799290335
 C          5.8221795231        1.1658850624        1.1615432136
 C          6.2997607399        2.4316714606        1.4641885018
 C          6.2076602225        3.4468310074        0.5244991590
 C          5.6413181246        3.2067723948       -0.7187630038
 C          5.1630655593        1.9435198184       -1.0278356500
 H          4.7193674100        1.7154044031       -1.9827472129
 H          5.5710095702        3.9987820962       -1.4469477737
 H          6.5796498908        4.4310388203        0.7618676244
 H          6.7403377131        2.6203477318        2.4300194026
 H          5.8680946459        0.3473419057        1.8621143441
 H          2.8375979643       -0.9000875123       -1.8147590967
 H          3.0866290628        0.8295813296        1.3597240638
 H          1.2893598351        0.7520956092        3.0566208875
 H         -0.7481906270       -0.5769849665        2.6403847355
 H         -1.7626023495       -2.3681167764        1.4775799608
 C         -1.1918042315       -3.2810764867       -0.3681263646
 C         -0.4401697905       -4.4559135502        0.1804956395
 C         -1.9226521408       -4.5416432036       -0.0205930264
 H         -2.2996345409       -5.1561047389       -0.8244396962
 H         -2.5583017606       -4.5269021794        0.8525164995
 H          0.2036187730       -5.0135601077       -0.4827756536
 H         -0.0669860715       -4.3796365350        1.1907463158
 H         -1.0768775493       -3.0533548813       -1.4208009209
