  62
        -98.94297469
 C         -2.6754744841       -1.1929730631        0.1219578088
 C         -2.7131413112       -0.1862297124       -0.8723169889
 C         -3.9277461814        0.6416946470       -0.8950901343
 C         -4.9152254655        0.3895138276       -0.0164793343
 C         -6.1807364445        1.1872667825        0.1037513659
 C         -6.0246617900        2.3262146249        1.1211597486
 C         -4.7664461016        3.1700079206        0.9161734023
 H         -4.7790039905        3.9601419779        1.6700883243
 H         -3.8865782196        2.5528988074        1.1124878526
 C         -4.6423861415        3.7969408365       -0.4795073682
 H         -4.3355368231        4.8390667738       -0.3687181996
 H         -5.6147169993        3.7965637327       -0.9734793937
 C         -3.6120513237        3.1236367968       -1.3881923059
 H         -3.4477460257        3.7711894108       -2.2535404873
 H         -2.6590210538        3.0347780113       -0.8603660504
 C         -3.9973016667        1.7377153060       -1.9208126354
 H         -4.9893148141        1.7799016328       -2.3750546323
 H         -3.2744879036        1.4672257527       -2.6960745738
 H         -5.9863946188        1.8923628030        2.1231133313
 H         -6.9075044348        2.9653041953        1.0616257966
 H         -6.4438463484        1.5909147934       -0.8719587525
 H         -6.9771745487        0.5202360744        0.4379913459
 O         -4.8516795594       -0.6041373871        0.9070994324
 C         -3.7291061425       -1.4089023577        1.0093465118
 O         -3.7881319740       -2.2654469417        1.9151479301
 H          0.9863181244       -2.1977405575       -1.0421873930
 C          0.9468464853       -1.4421362411       -0.2730214940
 C         -0.2167571951       -1.2565071422        0.4555164323
 C         -0.2273367498       -0.2814389838        1.4498699909
 C          0.8875674178        0.4977606445        1.6888565834
 C          2.0417621475        0.3217327878        0.9450133431
 C          2.0701781962       -0.6577560597       -0.0367504669
 N          3.2341746428       -0.8412676206       -0.7987592222
 S          4.7208402776       -0.9014648236       -0.0273906983
 O          5.5764079736       -1.6512632333       -0.9210380116
 O          4.5987670666       -1.4087079135        1.3195313630
 C          5.2607840230        0.7949270313        0.0031614128
 C          5.6418121173        1.3745214839        1.1973680090
 C          6.0713612064        2.6925631996        1.1959726059
 C          6.1130274189        3.4033587701        0.0064150604
 C          5.7294939331        2.8057639740       -1.1850691120
 C          5.3000223600        1.4883958067       -1.1905494076
 H          4.9963690939        0.9885360032       -2.0951809087
 H          5.7628900550        3.3619374346       -2.1080800740
 H          6.4467491225        4.4290395326        0.0076472776
 H          6.3704440978        3.1587467969        2.1210444668
 H          5.5882305469        0.7851088486        2.0989886147
 H          3.1569008186       -1.5567599759       -1.5066002032
 H          2.9136783574        0.9292194484        1.1240274643
 H          0.8591896501        1.2529773454        2.4599050901
 H         -1.1285175712       -0.1424681429        2.0324179905
 C         -1.4568175173       -2.0899555317        0.2396799859
 H         -1.6139199539       -2.7013333099        1.1406897044
 C         -1.3756459590       -3.0092953043       -0.9614716878
 C         -0.7258515357       -4.3544444568       -0.8423472342
 C         -2.2146983698       -4.2500819707       -0.9777811206
 H         -2.6714649984       -4.5521841728       -1.9082559879
 H         -2.8251523986       -4.4458417023       -0.1081313302
 H         -0.3223644894       -4.6322600385        0.1199398472
 H         -0.1624189077       -4.7337120509       -1.6820090692
 H         -1.2682479343       -2.4669617988       -1.8941171164
 O         -1.7837514789        0.0111384577       -1.6975922499
