  62
        -98.93620541
 C          1.7853347597        0.1776633906       -0.2673988793
 C          2.9046549499        0.4069193309       -1.1008876990
 C          4.2153676497        0.4271079508       -0.4347214187
 C          4.2746182894        0.2459798803        0.8975002413
 C          5.5365612892        0.1644535502        1.7088178315
 C          6.1908946194       -1.2202790597        1.5284952012
 C          7.5498915195       -1.1892821794        0.8288961015
 H          8.3034125893       -0.8289138096        1.5323959518
 H          7.8074206896       -2.2182621493        0.5690102113
 C          7.6328391597       -0.3216955290       -0.4307494982
 H          7.7480774296        0.7258674209       -0.1483628378
 H          8.5492935599       -0.6054439388       -0.9525875881
 C          6.4545286900       -0.4400579588       -1.4060047685
 H          5.9524629600       -1.4006012789       -1.2887365389
 H          6.8512901602       -0.4110771184       -2.4229318984
 C          5.4174508199        0.6934894511       -1.2982409083
 H          5.9120331298        1.6099462710       -0.9640953579
 H          5.0075232601        0.8870459614       -2.2940993784
 H          6.3198206492       -1.6915244700        2.5039959411
 H          5.5033987495       -1.8524470696        0.9627540709
 H          6.2206744593        0.9536052203        1.4046950319
 H          5.2624781090        0.3225570598        2.7520145015
 O          3.1742303093        0.0367479000        1.6661015609
 C          1.9035868294       -0.0021084899        1.1105925407
 O          0.9881664792       -0.1975858702        1.9309451904
 H         -2.2642133403        0.0002472403       -0.2146159303
 C         -1.8285818604        0.9651280803       -0.0154466499
 C         -0.4903284204        1.1991870105       -0.2921478095
 C          0.0295587795        2.4656278004       -0.0365194090
 C         -0.7619290307        3.4598651702        0.5034827112
 C         -2.0967952907        3.2211805600        0.7794079608
 C         -2.6316285706        1.9679911201        0.5116610003
 N         -3.9790594406        1.6910010799        0.7846897399
 S         -4.8808075204        0.7855770102       -0.2945439906
 O         -4.4501847601        0.9939642707       -1.6571425705
 O         -6.2552344904        1.1367713500       -0.0043607408
 C         -4.6155881304       -0.9083477199        0.1838930689
 C         -4.5122441906       -1.2221277404        1.5245480288
 C         -4.3574328806       -2.5497686805        1.8900775684
 C         -4.3181544304       -3.5366780102        0.9166975681
 C         -4.4291811201       -3.2057510497       -0.4248089918
 C         -4.5795596801       -1.8789356696       -0.7975393414
 H         -4.6575897199       -1.5760205693       -1.8295992613
 H         -4.3982654299       -3.9741963395       -1.1810909920
 H         -4.1987854704       -4.5692150902        1.2049959278
 H         -4.2670207409       -2.8105488608        2.9323150084
 H         -4.5431687109       -0.4312863306        2.2552044891
 H         -4.5077395208        2.4690131398        1.1514646100
 H         -2.7182549409        3.9979654199        1.1986142509
 H         -0.3394069008        4.4329836101        0.7046109816
 H          1.0695841495        2.6591991305       -0.2617907687
 C          0.4023019198        0.1388011607       -0.8887076596
 H          0.5514950700        0.3843729710       -1.9515626895
 C         -0.1742210001       -1.2586304394       -0.7895289102
 C         -1.1035137799       -1.7767804791       -1.8448202406
 C          0.2962475302       -2.3035553790       -1.7550352704
 H          0.4470533901       -3.3095333891       -1.3936777607
 H          1.0093669703       -1.9972613587       -2.5065372102
 H         -1.3502767797       -1.1166432688       -2.6630475404
 H         -1.9135070799       -2.4225285592       -1.5409716810
 H         -0.3440262503       -1.5639013797        0.2370917096
 O          2.8107490201        0.5936516513       -2.3449736590
