  62
        -98.93320779
 C         -1.9158867209       -1.7672880089       -0.0829592309
 C         -2.5677099606       -1.0814163197        0.9751328298
 C         -3.6717563706       -0.1777522393        0.6206162107
 C         -4.0382139509       -0.0685383683       -0.6694310792
 C         -5.1220242610        0.7609772522       -1.3249994383
 C         -5.7257861907        1.9614456418       -0.5995087073
 C         -4.7535414406        3.1091769315       -0.3299987566
 H         -4.4668081407        3.5566137422       -1.2851852064
 H         -5.2813137004        3.8705632811        0.2487681240
 C         -3.4688497804        2.7331264908        0.4056121028
 H         -2.8602582206        2.0794864012       -0.2240521378
 H         -2.8909100703        3.6490893207        0.5583769234
 C         -3.6627903502        2.0717258298        1.7696291624
 H         -2.6802960101        2.0167967694        2.2464347321
 H         -4.3045722000        2.6974954594        2.3927326230
 C         -4.2405112703        0.6447321499        1.7394731814
 H         -3.9512094202        0.1431964492        2.6673826410
 H         -5.3269249503        0.6552115400        1.6957086217
 H         -6.1996629405        1.6447372611        0.3248804326
 H         -6.5181741608        2.3473927423       -1.2467191668
 H         -4.6997970912        1.0941265629       -2.2784417182
 H         -5.9304781811        0.0638291625       -1.5717430987
 O         -3.4477122012       -0.8183885577       -1.6414909999
 C         -2.3708312412       -1.6679913379       -1.3958370807
 O         -1.9743038215       -2.2534929772       -2.4193623812
 H         -0.0384506508       -0.0046220690       -0.2719551500
 C          0.4979026193       -0.3745878696        0.5903038296
 C          0.2732346593       -1.6633566400        1.0516140387
 C          0.9673569796       -2.0989661509        2.1753198482
 C          1.8559906698       -1.2626223914        2.8255052687
 C          2.0831884198        0.0191135689        2.3564702196
 C          1.3966418796        0.4635559798        1.2334973500
 N          1.5999958896        1.7632857602        0.7199720710
 S          2.3244759592        1.8669502012       -0.7861900191
 O          2.4864186293        3.2806149614       -1.0412055881
 O          1.5580577890        1.1163864920       -1.7463395495
 C          3.9242544092        1.1153372009       -0.5399429700
 C          5.0075065394        1.9248542706       -0.2579598096
 C          6.2327605294        1.3363227603        0.0109937096
 C          6.3504353192       -0.0454543497        0.0047933286
 C          5.2527072991       -0.8444885594       -0.2762323418
 C          4.0253313391       -0.2617257691       -0.5503621311
 H          3.1533645290       -0.8525629788       -0.7790951513
 H          5.3429783990       -1.9187205594       -0.2829867226
 H          7.3032445093       -0.5034181199        0.2182771080
 H          7.0884651795        1.9555314901        0.2267835999
 H          4.8687656594        2.9939391206       -0.2672008588
 H          2.0810331997        2.3791830696        1.3614354413
 H          2.7736320399        0.6775649585        2.8620583599
 H          2.3775799199       -1.6105735521        3.7037623383
 H          0.7870434396       -3.0954691711        2.5507355675
 C         -0.6966012609       -2.5747618494        0.3370762782
 H         -1.0448062008       -3.3160425999        1.0768028978
 C         -0.0176157012       -3.3418624886       -0.7857147325
 C          0.9621075087       -2.6983535380       -1.7158884922
 C          1.4365251488       -3.7055670988       -0.7137061131
 H          1.7343371786       -4.6790616985       -1.0724214939
 H          2.0077943490       -3.3485354494        0.1299997171
 H          0.9144271784       -2.9749300772       -2.7582042424
 H          1.1906725888       -1.6527281581       -1.5694913315
 H         -0.6814872714       -4.0728144682       -1.2326958929
 O         -2.2291651004       -1.2227837306        2.1807782896
