  62
        -98.94293024
 C          2.0127612364        0.4576444242        0.0448690907
 C          2.6751236397       -0.7951799053        0.1353360991
 C          4.0494035125       -0.8507144194       -0.3774987656
 C          4.5936076366        0.2573664391       -0.9119155993
 C          5.9999371273        0.3639823418       -1.4244729745
 C          6.9587140777        0.8319046062       -0.3206857510
 C          6.8211526370        0.0528348518        0.9873594101
 H          5.8388012579        0.2539912501        1.4208032003
 H          7.5655550142        0.4484483714        1.6817032857
 C          7.0098377134       -1.4640152040        0.8455330510
 H          7.6559814599       -1.8138232401        1.6534598071
 H          7.5160352439       -1.6885703509       -0.0939977691
 C          5.7153206410       -2.2752173682        0.9288556594
 H          5.1582226836       -1.9862960509        1.8238160982
 H          5.9812665735       -3.3302504484        1.0367667731
 C          4.7770414682       -2.1619131841       -0.2794969188
 H          4.0027568279       -2.9274039988       -0.1722719373
 H          5.3333992458       -2.3633249669       -1.1973218715
 H          6.7600299684        1.8858738431       -0.1134666602
 H          7.9814454829        0.7452178530       -0.6919743114
 H          6.3151775298       -0.6043478419       -1.8083223796
 H          6.0150132932        1.0904795433       -2.2385750520
 O          3.9262604064        1.4328182338       -1.0012092190
 C          2.6298668542        1.5723386557       -0.5243478608
 O          2.1702697907        2.7203749647       -0.6780166247
 H         -1.3578801471       -1.3341113645        0.4407558345
 C         -1.3909697332       -0.6321551939       -0.3787748357
 C         -0.4495194021        0.3830208770       -0.4674385535
 C         -0.5162370837        1.2656047831       -1.5412361535
 C         -1.4970328452        1.1224882893       -2.5050773705
 C         -2.4438136332        0.1175120067       -2.4052747951
 C         -2.3919334061       -0.7631657759       -1.3324934427
 N         -3.3481542749       -1.7879384574       -1.1893905155
 S         -4.2608443943       -1.8201728914        0.2146650833
 O         -3.4097606024       -2.0690427931        1.3488005346
 O         -5.3023813776       -2.7902251707       -0.0371747229
 C         -4.9670270499       -0.1844344327        0.3149504538
 C         -6.2330053185        0.0272166055       -0.1956139564
 C         -6.7554972173        1.3103572229       -0.1842138832
 C         -6.0014308447        2.3574289759        0.3237421352
 C         -4.7307767924        2.1290642839        0.8290753371
 C         -4.2048501412        0.8467844386        0.8275242061
 H         -3.2212494042        0.6371720927        1.2145311525
 H         -4.1419877580        2.9424996892        1.2215902490
 H         -6.4054968752        3.3574746024        0.3274140549
 H         -7.7446429976        1.4903298207       -0.5734575222
 H         -6.7842025952       -0.8167955276       -0.5778013759
 H         -3.9579938838       -1.8878349084       -1.9891272344
 H         -3.2137212199        0.0117696110       -3.1547147582
 H         -1.5313596670        1.8080740891       -3.3380528596
 H          0.2125210542        2.0577483983       -1.6154437054
 C          0.6031629190        0.5188882749        0.6071380861
 H          0.5196194567       -0.3612370876        1.2599882894
 C          0.3362548828        1.7565020322        1.4427281886
 C         -0.6982595334        1.6918230370        2.5245108793
 C          0.7557510531        1.7732032982        2.8803167862
 H          1.1384352117        2.6938480724        3.2942087017
 H          1.2343228492        0.8869147072        3.2716986504
 H         -1.2010375771        0.7485546311        2.6841316046
 H         -1.3177455149        2.5578596137        2.6998537668
 H          0.4319400412        2.6797358795        0.8864776435
 O          2.1393094656       -1.8226271835        0.6330759960
