  62
        -98.93570436
 C         -2.1215905657       -0.4546661374        0.8404764203
 C         -2.4624598172       -0.1841117270       -0.5084167577
 C         -3.2595818337        1.0323480256       -0.7291480170
 C         -3.5491825511        1.8457682740        0.3012255241
 C         -4.3442133912        3.1210483854        0.2307081104
 C         -5.8634459152        2.9092095542        0.2870642165
 C         -6.4857916653        2.3184238597       -0.9787863895
 H         -7.5679789787        2.4276257889       -0.8838468826
 H         -6.1741811918        2.9052306187       -1.8434411863
 C         -6.1592786822        0.8371275185       -1.2152131108
 H         -5.7935875284        0.3913920202       -0.2871685341
 H         -7.0717501637        0.3019830354       -1.4875634390
 C         -5.1374138341        0.5821585159       -2.3234730443
 H         -5.5483661096        0.9058392273       -3.2822768331
 H         -4.9570073879       -0.4943991952       -2.3823069463
 C         -3.7868182329        1.2787630900       -2.1104172308
 H         -3.0679639679        0.8600753256       -2.8191495698
 H         -3.8814881708        2.3481015764       -2.2976744927
 H         -6.0955509775        2.2679773040        1.1406831425
 H         -6.3215684417        3.8838930117        0.4701563294
 H         -4.0479501845        3.7205479354        1.0941802936
 H         -4.0848361303        3.6662777018       -0.6771211238
 O         -3.1161390649        1.6006702220        1.5672892415
 C         -2.4140965605        0.4449428448        1.8686314299
 O         -2.0947905330        0.3423899321        3.0707587259
 H          0.7014821299       -0.0830178302        0.9253593999
 C          0.8103042072       -0.9577148102        0.2942666223
 C         -0.1880817792       -1.9248570887        0.3117728430
 C         -0.0419929908       -3.0423116046       -0.4980378358
 C          1.0725248238       -3.1775019441       -1.3076074825
 C          2.0594718785       -2.2101640513       -1.3281449385
 C          1.9232718062       -1.0865133706       -0.5225242879
 N          2.9154387937       -0.0832548358       -0.5486211238
 S          4.5121983203       -0.6146926530       -0.3739053063
 O          4.9664366577       -1.1245309583       -1.6427996471
 O          4.6105388228       -1.5271510627        0.7442609493
 C          5.3525033128        0.9125328302       -0.0046432856
 C          5.7159036745        1.7411681188       -1.0491602331
 C          6.3559942362        2.9365418312       -0.7633736908
 C          6.6203340923        3.2814843740        0.5538520543
 C          6.2499136120        2.4392155363        1.5913894564
 C          5.6079689260        1.2428068571        1.3126951677
 H          5.3115344240        0.5532886719        2.0870892450
 H          6.4590283207        2.7084934302        2.6142423836
 H          7.1210136724        4.2111546699        0.7737109094
 H          6.6477785821        3.5932320095       -1.5669789370
 H          5.4996892543        1.4269108880       -2.0567875446
 H          2.7200511998        0.6484130635        0.1219837217
 H          2.9337075204       -2.3111131200       -1.9506525513
 H          1.1729625598       -4.0495380400       -1.9364129013
 H         -0.8101555066       -3.7978203021       -0.5135062622
 C         -1.3609003761       -1.7079669702        1.2366699507
 H         -0.9550605677       -1.4890387399        2.2386461063
 C         -2.2411804450       -2.9398053098        1.3902443509
 C         -3.6649844382       -2.8136431436        1.8419545920
 C         -3.3586956134       -3.2566203170        0.4445013733
 H         -3.5324759590       -4.2911448930        0.1865284169
 H         -3.5381703936       -2.5696747049       -0.3668846394
 H         -4.0472981210       -3.5401987355        2.5430718817
 H         -4.0549160417       -1.8169756348        1.9912051050
 H         -1.6857002925       -3.7833802396        1.7888811663
 O         -2.1319314088       -0.9061673462       -1.4825947122
