  62
        -98.94493111
 C          2.1909245832        0.9651316965        0.5372183278
 C          2.3454089458        0.1976646176       -0.6429897640
 C          3.1168224865       -1.0437714461       -0.4971581705
 C          3.5731750693       -1.4118938162        0.7135456940
 C          4.3475263270       -2.6635943607        1.0265747073
 C          5.8553493500       -2.5486400243        0.7633853111
 C          6.2590494456       -2.5333345453       -0.7114402042
 H          7.3413893335       -2.6713736465       -0.7484021569
 H          5.8047732603       -3.3844725223       -1.2196595935
 C          5.9011716881       -1.2375651965       -1.4525970295
 H          5.6931395424       -0.4481812209       -0.7267403913
 H          6.7572288964       -0.9094932760       -2.0462936675
 C          4.7107572493       -1.3597370166       -2.4040382572
 H          4.9568732072       -2.0510427758       -3.2129840133
 H          4.5217213838       -0.3780055983       -2.8454017377
 C          3.4141469510       -1.8347818367       -1.7349454683
 H          2.5872974706       -1.6794132069       -2.4327849031
 H          3.4773573318       -2.8977986838       -1.5021436411
 H          6.2270172534       -1.6455259352        1.2528072878
 H          6.3344534265       -3.4066905278        1.2404830566
 H          4.1976239011       -2.8637656034        2.0898475312
 H          3.9389565692       -3.4984020164        0.4560121790
 O          3.3517898060       -0.6739180121        1.8347536963
 C          2.6711138392        0.5320592248        1.7723199796
 O          2.5482821049        1.1092117829        2.8729181897
 H         -0.2081287292        0.5144365443        1.5970829849
 C         -0.7027868187        1.0338850535        0.7843205577
 C         -0.0017030043        2.0086841704        0.0841680616
 C         -0.6448578150        2.6681754276       -0.9538736326
 C         -1.9491106184        2.3432551157       -1.2868448737
 C         -2.6401635087        1.3684769452       -0.5914517874
 C         -2.0081488143        0.7074853608        0.4541955633
 N         -2.7066466155       -0.2757539430        1.1802759298
 S         -3.4097268043       -1.5308961505        0.3101896039
 O         -3.4926886628       -2.6349024030        1.2423898296
 O         -2.7042152055       -1.7836738670       -0.9248690413
 C         -5.0533999894       -0.9368959742       -0.0300597926
 C         -5.8460744226       -0.5693959676        1.0397438385
 C         -7.1296963778       -0.1091091427        0.7938781794
 C         -7.5971996210       -0.0277307540       -0.5095377647
 C         -6.7901418667       -0.4039440275       -1.5722657446
 C         -5.5043274985       -0.8641291111       -1.3333696587
 H         -4.8382253046       -1.1622083954       -2.1274579354
 H         -7.1551796015       -0.3401731102       -2.5847380761
 H         -8.5965819898        0.3312416465       -0.6982428364
 H         -7.7601934425        0.1842048284        1.6176725630
 H         -5.4452538127       -0.6522100393        2.0361797221
 H         -2.1784132681       -0.6477522683        1.9569223528
 H         -3.6537127831        1.1105095085       -0.8516036972
 H         -2.4343080498        2.8575330713       -2.1022882040
 H         -0.1220831256        3.4274049992       -1.5114986046
 C          1.4260278048        2.2770412210        0.4964595223
 H          1.4146021842        2.6533875736        1.5298671008
 C          2.1394456670        3.2823088198       -0.3819179156
 C          1.9658543469        4.7501772516       -0.1365898964
 C          3.2639616998        4.0822287794        0.2011932074
 H          4.1266092537        4.2847866005       -0.4156438048
 H          3.5018001247        3.9181566186        1.2424633138
 H          1.9398103198        5.4158464314       -0.9859338848
 H          1.3231480494        5.0476819147        0.6780112973
 H          2.2472638301        2.9404568472       -1.4045813987
 O          1.8669849461        0.5270159683       -1.7587328667
