  62
        -98.94350877
 C         -1.7260865886       -1.3731884113        0.6382757382
 C         -2.6113398507       -1.0246589622       -0.4111993370
 C         -3.4215722410        0.1838138849       -0.1886603404
 C         -3.2564465432        0.8983116829        0.9385923972
 C         -3.9804659907        2.1723721033        1.2626704608
 C         -3.2020068609        3.4002408803        0.7705488888
 C         -2.7357595598        3.2939789670       -0.6814120811
 H         -2.2274076700        4.2280405994       -0.9303184509
 H         -2.0001080855        2.4905080184       -0.7601343276
 C         -3.8624519270        3.0472714926       -1.6943484589
 H         -3.7154929213        3.7089529924       -2.5506274787
 H         -4.8249739273        3.3036096994       -1.2500962313
 C         -3.9213909731        1.6195457587       -2.2401484217
 H         -4.6002220550        1.6107651515       -3.0971673152
 H         -2.9339744956        1.3226378929       -2.6022945157
 C         -4.4138947051        0.5509915336       -1.2563689817
 H         -5.3587323775        0.8685315507       -0.8104527610
 H         -4.5940739528       -0.3651782770       -1.8261812646
 H         -2.3233999862        3.5258117134        1.4072019056
 H         -3.8368592178        4.2803378596        0.8884807708
 H         -4.9678872065        2.1476058962        0.8056063468
 H         -4.0945176375        2.2358488034        2.3461756446
 O         -2.3644992068        0.5571590485        1.9036701732
 C         -1.5809409153       -0.5744349478        1.7763489959
 O         -0.8014059399       -0.7669818962        2.7321242165
 H          1.5286319631       -1.7231509282        1.4840089236
 C          1.5304689838       -1.7874605042        0.4037690527
 C          0.3907638871       -2.2419974268       -0.2466919219
 C          0.3892925311       -2.2882422323       -1.6359762339
 C          1.5095287774       -1.8973002025       -2.3482182977
 C          2.6486317411       -1.4566341534       -1.6970214810
 C          2.6544264521       -1.3951851236       -0.3094692076
 N          3.8071932076       -0.9524314409        0.3704919985
 S          4.4295197017        0.5526918216       -0.0103835531
 O          4.9361198824        0.5280547352       -1.3585587218
 O          5.3894419840        0.8408557385        1.0298950443
 C          3.0483019732        1.6740831988        0.1038756058
 C          2.2640134173        1.9030626139       -1.0087298152
 C          1.1682110419        2.7429488370       -0.8914625398
 C          0.8775405774        3.3344240528        0.3280755889
 C          1.6721414292        3.0901816876        1.4373227257
 C          2.7661698859        2.2478458176        1.3274621741
 H          3.4145346284        2.0392410696        2.1634485750
 H          1.4410875368        3.5495884259        2.3850885443
 H          0.0263910576        3.9912799185        0.4137442083
 H          0.5449230846        2.9336219003       -1.7506323505
 H          2.5268523366        1.4330200366       -1.9421007849
 H          3.7307766096       -1.0392218625        1.3741746494
 H          3.5271352798       -1.1490472675       -2.2409201279
 H          1.4974106760       -1.9384145412       -3.4269706458
 H         -0.5018866535       -2.6057037601       -2.1530929494
 C         -0.8226893960       -2.5970583908        0.5778420102
 H         -0.4845050377       -2.7663353896        1.6090254921
 C         -1.5251891580       -3.8488236603        0.0965254295
 C         -0.8714879610       -5.1761100025        0.3322617977
 C         -2.0987116239       -4.7970707302        1.1042595409
 H         -3.0291040834       -5.2935148265        0.8726532385
 H         -1.9871530648       -4.5474491786        2.1496803035
 H          0.0739845024       -5.1815543102        0.8539298444
 H         -0.9564097418       -5.9354226765       -0.4297296730
 H         -2.0784695201       -3.7148257076       -0.8226665252
 O         -2.7410918972       -1.6750194725       -1.4803508396
