  62
        -98.94628445
 C          1.3631350667        1.2285217623        0.5208139543
 C          1.6264285443        0.3974748439       -0.5958077805
 C          2.3911376912       -0.8242847574       -0.3086729688
 C          2.6957497484       -1.1421113321        0.9620425232
 C          3.4331283462       -2.3729732902        1.4155569139
 C          4.9609524730       -2.2384592635        1.3581507427
 C          5.5601208234       -2.2551278941       -0.0486406652
 H          6.6398883957       -2.3702433148        0.0651012481
 H          5.1952351096       -3.1302476283       -0.5872442466
 C          5.2822481418       -0.9882924046       -0.8699736248
 H          4.9664895683       -0.1832473423       -0.2023564139
 H          6.2051782649       -0.6585342613       -1.3523227075
 C          4.2338961117       -1.1610456346       -1.9692522423
 H          4.0944394709       -0.1953387548       -2.4614822525
 H          4.6009494352       -1.8690122847       -2.7154895465
 C          2.8638461528       -1.6423668940       -1.4720006466
 H          2.9118719927       -2.6984270010       -1.2072834799
 H          2.1421389690       -1.5092990557       -2.2806612869
 H          5.2501855358       -1.3160899876        1.8673358540
 H          5.3836786689       -3.0741182673        1.9207811289
 H          3.1224963114       -3.2314137718        0.8189965002
 H          3.1417238763       -2.5467004090        2.4538628005
 O          2.3310820646       -0.3655088097        2.0182115597
 C          1.6898165706        0.8468052344        1.8218997560
 O          1.4506922600        1.4758330995        2.8745362682
 O          1.2541001112        0.6546782884       -1.7674802117
 C          0.6330198689        2.5502549298        0.3407130938
 C         -0.7886608588        2.2535678387       -0.0705177729
 C         -1.3516240542        2.6450170212       -1.2765975554
 C         -2.6478735810        2.2748421289       -1.5961292710
 C         -3.4070777547        1.5168806033       -0.7241639166
 C         -2.8547087804        1.1309200054        0.4910645192
 C         -1.5580066794        1.4985542245        0.8076532983
 H         -1.1244756867        1.1907202971        1.7515071558
 N         -3.6145096594        0.3434297953        1.3818025938
 S         -4.1851721704       -1.1003861641        0.7491297154
 O         -5.3723884839       -0.8418536701       -0.0256154431
 O         -4.3501877589       -1.9816359607        1.8835475430
 C         -2.8789731841       -1.6825876638       -0.3169935784
 C         -1.6903941889       -2.0745614609        0.2661689998
 C         -0.6510442620       -2.4950486063       -0.5462251796
 C         -0.8149989850       -2.5089897793       -1.9225377262
 C         -2.0117041660       -2.1066531459       -2.4932894099
 C         -3.0557133655       -1.6865419260       -1.6850769921
 H         -4.0030951977       -1.3669564020       -2.0871094819
 H         -2.1318137496       -2.1146542278       -3.5645265667
 H         -0.0022329231       -2.8346386420       -2.5518498053
 H          0.2850063600       -2.7974786993       -0.1042393686
 H         -1.5949825415       -2.0566213585        1.3408744611
 H         -3.1412762854        0.1722706713        2.2578358399
 H         -4.4134762943        1.2123559543       -0.9617237011
 H         -3.0712103224        2.5788788051       -2.5410841990
 H         -0.7726451559        3.2273873026       -1.9735641300
 H          0.6049415690        3.0185347639        1.3349796967
 C          1.3765955813        3.4634772210       -0.6086553886
 C          1.1465992178        4.9426725747       -0.5491574127
 C          2.4415618016        4.3652729140       -0.0639716627
 H          3.3322681485        4.5258179775       -0.6527220168
 H          2.6231570039        4.3373963540        1.0009738403
 H          1.1496238180        5.5038348707       -1.4711117438
 H          0.4486690257        5.3104862391        0.1878465819
 H          1.5554725502        3.0115874809       -1.5764533291
