  62
        -98.94438038
 C          1.8663104703        1.0398360189       -0.2271321816
 C          2.4032877498       -0.0991558717       -0.8736501010
 C          3.8660431097       -0.2362672120       -0.8120355713
 C          4.5929927302        0.7111133983       -0.1918286822
 C          6.0814223402        0.6655970580       -0.0052645227
 C          6.4521343805       -0.0140496611        1.3205213977
 C          5.7463127802       -1.3508920008        1.5481609789
 H          6.1067484004       -1.7513991002        2.4981558890
 H          4.6740423803       -1.1744537204        1.6596925091
 C          5.9739259096       -2.3860628616        0.4377482995
 H          6.1923750095       -3.3517147914        0.8985442101
 H          6.8447491295       -2.1067765523       -0.1565034910
 C          4.7750528992       -2.5964431520       -0.4892081500
 H          3.8779124894       -2.7846792613        0.1063181405
 H          4.9620038188       -3.4908255225       -1.0896544494
 C          4.4738071592       -1.4479705826       -1.4604221807
 H          5.3798574291       -1.1808550832       -2.0081956012
 H          3.7306462389       -1.8070405629       -2.1785810902
 H          7.5331560504       -0.1631546014        1.3417149074
 H          6.1855005109        0.6575853195        2.1398137473
 H          6.5312492698        0.1302650773       -0.8390422825
 H          6.4587253405        1.6895381579        0.0035626265
 O          4.0418463706        1.8071657188        0.3896188672
 C          2.6691748207        1.9926323992        0.3993244475
 O          2.2918387212        3.0253065197        0.9890414369
 O          1.7011419093       -0.9587165819       -1.4675491801
 C          0.3648999003        1.2659640293       -0.2195396913
 C         -0.3378208998        0.0651399899        0.3644255598
 C          0.1355744604       -0.4732440293        1.5592030000
 C         -0.4592534197       -1.5857092188        2.1197059110
 C         -1.5524961400       -2.1773043989        1.5106222018
 C         -2.0427667903       -1.6403652897        0.3276533615
 C         -1.4418303201       -0.5204616902       -0.2342341294
 H         -1.8362736603       -0.1373036408       -1.1600631896
 N         -3.1490116506       -2.2195566398       -0.3130291777
 S         -4.3366403106       -1.2365310300       -0.9554632180
 O         -5.5121832908       -2.0784704797       -1.0121152970
 O         -3.9054837608       -0.6725595310       -2.2087727685
 C         -4.5620978498        0.0516256509        0.2581800411
 C         -4.9920884295       -0.3094510681        1.5201767615
 C         -5.1369091490        0.6730522027        2.4855242709
 C         -4.8493554387        1.9936587724        2.1750380099
 C         -4.4257836091        2.3405356214        0.9019066395
 C         -4.2783504996        1.3611753106       -0.0676416599
 H         -3.9488275399        1.5879205998       -1.0682052701
 H         -4.2069444689        3.3687687011        0.6608855787
 H         -4.9582395283        2.7577434929        2.9285153094
 H         -5.4704456487        0.4078846634        3.4758131012
 H         -5.2179292297       -1.3432657479        1.7248799023
 H         -3.5442489207       -3.0152438494        0.1657773630
 H         -2.0137253801       -3.0531424585        1.9409433325
 H         -0.0714761195       -1.9969219482        3.0395592512
 H          0.9906776307       -0.0117385892        2.0347690894
 H          0.1899245007        2.1245228598        0.4454985282
 C         -0.1053544900        1.6274073185       -1.6131285014
 C         -1.2604475999        2.5612133386       -1.8055599417
 C          0.1322428202        3.0183498980       -2.1168870125
 H          0.4166179799        3.1516095472       -3.1499191426
 H          0.6063187806        3.7142775384       -1.4398271731
 H         -1.9373525402        2.3782949982       -2.6272645513
 H         -1.7308742895        2.9581146194       -0.9188612918
 H          0.0193637795        0.8148396479       -2.3203084409
