  62
        -98.93775648
 C         -1.1306456098       -1.0512907306       -0.7042440289
 C         -2.2056168091       -1.4604569757        0.1213158466
 C         -3.1148271046       -0.4103447783        0.6080178755
 C         -2.8573150318        0.8693004108        0.2887383465
 C         -3.6700277228        2.0831096335        0.6467170037
 C         -4.6668083796        2.4219333310       -0.4747096178
 C         -6.0099471738        1.6988104257       -0.3819984882
 H         -6.5800436379        2.1079457293        0.4547042038
 H         -6.5634113219        1.9232730129       -1.2966707516
 C         -5.9259869210        0.1788530265       -0.2189712549
 H         -5.1581960758       -0.2211287607       -0.8835839735
 H         -6.8810544010       -0.2447732160       -0.5354169300
 C         -5.6441089707       -0.2595274841        1.2259571440
 H         -5.7838474009        0.5929439426        1.8906545311
 H         -6.3790195488       -1.0094253531        1.5260447557
 C         -4.2583516732       -0.8777611799        1.4665382759
 H         -3.9823069693       -0.7404275081        2.5178968032
 H         -4.3064143500       -1.9583056555        1.2972937155
 H         -4.1875981006        2.1887538107       -1.4288955288
 H         -4.8597536727        3.4965352356       -0.4591649521
 H         -4.1776121401        1.9389810382        1.5960387238
 H         -2.9639020152        2.9098782056        0.7507120880
 O         -1.8015903332        1.2275884384       -0.4877708664
 C         -0.9097469049        0.2945782066       -1.0009808450
 O         -0.0074650923        0.7985306698       -1.6920554513
 H          1.3492612789       -0.2742385235       -0.0088990833
 C          1.5882647303       -1.2628170479        0.3473115127
 C          0.8983487026       -2.3555967081       -0.1579807239
 C          1.2150542008       -3.6232170259        0.3148244471
 C          2.1918918117       -3.7857221784        1.2820228095
 C          2.8597956647       -2.6914563769        1.8015990380
 C          2.5514176713       -1.4191429396        1.3315785373
 N          3.2195146524       -0.2868437733        1.8127626819
 S          2.4853786940        1.2154738430        1.7927533106
 O          3.2856767337        2.0060089941        2.7076819162
 O          1.0782365739        1.1336815667        2.1155280139
 C          2.7378411832        1.8296988664        0.1425673001
 C          3.8325909387        1.4046146142       -0.5831220273
 C          4.0344257251        1.9231836232       -1.8513872403
 C          3.1501788190        2.8588668743       -2.3652965748
 C          2.0611828582        3.2806399230       -1.6206919692
 C          1.8498059232        2.7609216203       -0.3542976122
 H          1.0006855112        3.0452926722        0.2474738013
 H          1.3665772720        4.0000721764       -2.0234253403
 H          3.3065514955        3.2582020846       -3.3551072412
 H          4.8773507798        1.5920819925       -2.4366514678
 H          4.4976948253        0.6717835980       -0.1568856344
 H          3.8124129238       -0.4271871127        2.6168284732
 H          3.6088735604       -2.8161898481        2.5683325324
 H          2.4268854200       -4.7743072965        1.6461104266
 H          0.6762602329       -4.4794845308       -0.0632505893
 C         -0.1879255443       -2.1430243926       -1.1812856589
 H         -0.8004653790       -3.0587518731       -1.2060736510
 C          0.3529824908       -1.9181583574       -2.5851885061
 C          1.7520863275       -1.4720492558       -2.8724394266
 C          1.3431846132       -2.8814166488       -3.1710272418
 H          1.2250243506       -3.1816187531       -4.2010686379
 H          1.7217300493       -3.6577006588       -2.5232624744
 H          1.8948896806       -0.7822964158       -3.6895966923
 H          2.4122432319       -1.2933427347       -2.0385562771
 H         -0.4146577098       -1.5411537729       -3.2534163370
 O         -2.4079340663       -2.6681175358        0.4283745114
