  62
        -98.94622504
 C         -1.3843723696       -1.1232912006       -0.1352096329
 C         -2.4946836455       -1.1459116818        0.7460547792
 C         -3.2511091570        0.1068159408        0.8646985400
 C         -2.8363951645        1.1901055362        0.1826414584
 C         -3.5395918019        2.5159378947        0.1766087793
 C         -4.5561353929        2.5989862801       -0.9705528729
 C         -5.4921717960        1.3933452374       -1.0539026509
 H         -6.1855815658        1.5758162668       -1.8777855859
 H         -4.9100224057        0.5066021166       -1.3148798145
 C         -6.2866483020        1.1162778436        0.2300740865
 H         -6.2874772143        2.0031518759        0.8648564235
 H         -7.3249851239        0.9099010840       -0.0382342083
 C         -5.7890431510       -0.0842396911        1.0374960812
 H         -5.7004526969       -0.9546185553        0.3823410129
 H         -6.5422433262       -0.3205655835        1.7939293458
 C         -4.4531981688        0.1084437926        1.7666603481
 H         -4.4885892195        1.0223217713        2.3631205789
 H         -4.3203942964       -0.7391489747        2.4454113974
 H         -5.1443632500        3.5100289108       -0.8460351175
 H         -4.0096529025        2.6729430695       -1.9134695449
 H         -4.0416390881        2.6601891931        1.1311890615
 H         -2.7958288486        3.3030465384        0.0459261891
 O         -1.7483905004        1.1838231096       -0.6258610972
 C         -0.9985310136        0.0327708052       -0.8159091232
 O         -0.0442373022        0.1762256815       -1.6022567942
 O         -2.8369034089       -2.1669778527        1.4002705404
 C         -0.5638805742       -2.3957506691       -0.2784378504
 C          0.7672144296       -2.1438938067        0.3826848375
 C          0.8838244029       -2.2901607586        1.7620878194
 C          2.0616523198       -1.9684640069        2.4108384291
 C          3.1421773162       -1.4737945334        1.7003662628
 C          3.0286493045       -1.3114187779        0.3264113590
 C          1.8581945830       -1.6679328575       -0.3285065254
 H          1.7857808954       -1.5291169297       -1.3951606792
 N          4.1078055569       -0.7605536788       -0.4001860910
 S          4.5256658228        0.8136432841       -0.0049611350
 O          5.4115708923        1.2522278498       -1.0596653711
 O          5.0738355975        0.8249484084        1.3284239314
 C          3.0114979489        1.7552635691       -0.0456234728
 C          2.6744605583        2.4198255929       -1.2067642713
 C          1.4867998429        3.1296902320       -1.2529525034
 C          0.6548471718        3.1522707267       -0.1457688245
 C          1.0007513880        2.4695865778        1.0091969188
 C          2.1913622020        1.7639931594        1.0644710883
 H          2.4943621496        1.2272546563        1.9488996096
 H          0.3429523246        2.4768879088        1.8645568552
 H         -0.2744410199        3.6981980803       -0.1868724760
 H          1.2071430580        3.6525197600       -2.1534360175
 H          3.3499942807        2.3771739491       -2.0462431887
 H          3.9660420965       -0.8132745400       -1.3999122124
 H          4.0585715992       -1.1876415418        2.1907291114
 H          2.1387293155       -2.0949224755        3.4802657119
 H          0.0305741099       -2.6457930545        2.3225667198
 H         -1.0999592269       -3.1568541057        0.3036784403
 C         -0.4617629799       -2.8618501370       -1.7150804701
 C          0.0275628053       -4.2493926962       -2.0005683671
 C         -1.4143034496       -3.9036257539       -2.2168592150
 H         -1.7796323429       -3.8221043513       -3.2296937026
 H         -2.1431211238       -4.2925809676       -1.5209369051
 H          0.6539107553       -4.4091486549       -2.8649143873
 H          0.2786894659       -4.8719620083       -1.1551559725
 H         -0.1857240983       -2.0751586192       -2.4062398905
