  62
        -98.93483551
 C          2.3119237807        0.7717265800       -0.0734883104
 C          3.5617339108        1.2098689599        0.4204444194
 C          4.7552604007        0.5572565195       -0.1443399304
 C          4.5955728405       -0.3902877307       -1.0847764902
 C          5.6691908103       -1.2078197112       -1.7484859899
 C          5.8755727600       -2.5398226310       -1.0073807496
 C          6.8687642400       -2.4846487809        0.1528652004
 H          6.8210590399       -3.4474015607        0.6668692607
 H          7.8795988501       -2.3758177612       -0.2455844996
 C          6.6231205203       -1.3699304405        1.1730334801
 H          7.1247459402       -1.6494821204        2.1015396602
 H          5.5559200003       -1.2995765202        1.3911179201
 C          7.1539415906       -0.0037359808        0.7140024797
 H          7.7776417907        0.4244524193        1.5013646096
 H          7.8019490505       -0.1460455011       -0.1505745103
 C          6.0775220208        1.0417055794        0.3856177294
 H          5.8227746509        1.5991976697        1.2924570593
 H          6.4900283909        1.7691510691       -0.3213477308
 H          6.2307592899       -3.2860006313       -1.7209855594
 H          4.9004930700       -2.8741925007       -0.6435980595
 H          5.3153829502       -1.4231287314       -2.7588234399
 H          6.5961477204       -0.6458946914       -1.8135370401
 O          3.3705388604       -0.7802755406       -1.5362769100
 C          2.2029709905       -0.2184413503       -1.0488094002
 O          1.1596664104       -0.6770583102       -1.5531773800
 H         -1.6768883092        1.1523055909        0.0942819395
 C         -1.2567144094        0.3935097710        0.7316909697
 C          0.1012008006        0.3782655008        1.0096420997
 C          0.5980820005       -0.6150870391        1.8496780500
 C         -0.2384461697       -1.5827704688        2.3700827103
 C         -1.5890176197       -1.5787408886        2.0691460103
 C         -2.1007886195       -0.5786911087        1.2511065100
 N         -3.4807181295       -0.5210887385        0.9872789500
 S         -4.0525305294        0.0498832112       -0.4936192601
 O         -3.4845214496       -0.7064389093       -1.5873540199
 O         -3.8821983392        1.4797650711       -0.5440372306
 C         -5.7847157395       -0.3344963084       -0.3090152800
 C         -6.5545460393        0.4799534320        0.5002100498
 C         -7.8957712494        0.1778932723        0.6726821999
 C         -8.4425492496       -0.9269080778        0.0365028902
 C         -7.6584534798       -1.7333235482       -0.7743834396
 C         -6.3153704898       -1.4377435085       -0.9496335197
 H         -5.6689038999       -2.0313769488       -1.5760607095
 H         -8.0869641900       -2.5892914182       -1.2703736293
 H         -9.4870807497       -1.1593860475        0.1713625803
 H         -8.5093373393        0.8037666826        1.3003604097
 H         -6.0881467592        1.3320573020        0.9662084095
 H         -3.9559738697       -1.3770220784        1.2411266603
 H         -2.2411264399       -2.3406861384        2.4684259105
 H          0.1643031001       -2.3528024487        3.0110367705
 H          1.6549980605       -0.6233279093        2.0800803100
 C          1.0457585808        1.4164311404        0.4567973494
 H          1.3706775910        2.0622319606        1.2870886092
 C          0.4192204910        2.2853330502       -0.6140968808
 C         -0.3618167887        3.5076217005       -0.2380141712
 C          0.9873401313        3.6470258800       -0.8746809412
 H          1.0461846513        3.9942161497       -1.8953341413
 H          1.8145763213        3.9628206501       -0.2558489713
 H         -0.4514961587        3.7369722108        0.8131164788
 H         -1.2394797087        3.7535075205       -0.8172593112
 H          0.0837252609        1.7104292601       -1.4717996107
 O          3.6761900110        2.1021109701        1.3043006192
