  62
        -98.93368186
 C          1.6449687078        0.1817387076        0.8567207043
 C          2.8323075828        0.9344469296        0.6892059088
 C          4.0639397265        0.1599503028        0.4545345020
 C          4.0033020627       -1.1818839861        0.3961638668
 C          5.1516153003       -2.0969322184        0.0784470081
 C          5.4340751817       -2.0830888728       -1.4375499757
 C          6.7915339562       -1.4933920217       -1.8209762787
 H          7.5722211984       -2.2230629601       -1.5957813309
 H          6.7872350385       -1.3390736394       -2.9021363951
 C          7.1670685541       -0.1782677155       -1.1313132302
 H          7.5352486777       -0.3834131650       -0.1249455577
 H          8.0056258564        0.2448284633       -1.6886217491
 C          6.0544627846        0.8741554816       -1.0416717244
 H          5.3144679487        0.7202116656       -1.8273562682
 H          6.5012851084        1.8554740680       -1.2143488491
 C          5.3433082325        0.9398585293        0.3229906656
 H          6.0374657477        0.6363871344        1.1115324288
 H          5.0592508077        1.9782403454        0.5173723887
 H          5.3822070016       -3.1010789778       -1.8266195319
 H          4.6387443985       -1.5186169408       -1.9288638942
 H          6.0334415322       -1.7873451958        0.6349977698
 H          4.8676123567       -3.0982708269        0.4025424335
 O          2.8430000482       -1.8709972483        0.5474373227
 C          1.6487886598       -1.2154816018        0.7842803351
 O          0.6686818579       -1.9752778117        0.9169018024
 O          2.8910041838        2.1928094964        0.7291837387
 C          0.2846102926        0.8017563789        1.1296991754
 C         -0.3898917837        1.2903196100       -0.1299965253
 C          0.2035452780        2.2347449087       -0.9604197917
 C         -0.4598397821        2.6881488679       -2.0857360043
 C         -1.7312769012        2.2328611290       -2.3885757054
 C         -2.3343727290        1.2923091719       -1.5624804928
 C         -1.6529724488        0.8158981254       -0.4516176253
 H         -2.1182907576        0.0701487240        0.1746814927
 N         -3.6201806989        0.8065932592       -1.8382024769
 S         -4.6915882399        0.5223271556       -0.5834302243
 O         -5.9983225439        0.5976283747       -1.2011367781
 O         -4.4598781263        1.4158268085        0.5268447876
 C         -4.3793311466       -1.1619750813       -0.1020705339
 C         -4.4132759375       -2.1387379313       -1.0772470891
 C         -4.1907498097       -3.4562906171       -0.7118615283
 C         -3.9417113089       -3.7735212656        0.6149290039
 C         -3.9152942173       -2.7819371482        1.5829514266
 C         -4.1371270817       -1.4621821374        1.2233616824
 H         -4.1202826674       -0.6594935764        1.9443437786
 H         -3.7183905200       -3.0300099090        2.6136963976
 H         -3.7652631583       -4.7993259242        0.8976030162
 H         -4.2095985161       -4.2316696580       -1.4607487695
 H         -4.6127433770       -1.8538165719       -2.0968149098
 H         -4.0749085381        1.2313711677       -2.6331741166
 H         -2.2542891230        2.6021295944       -3.2578794225
 H          0.0117959013        3.4174540730       -2.7271908235
 H          1.1851150601        2.6088039340       -0.7138251064
 H         -0.3325509227       -0.0121424354        1.5341462833
 C          0.3188845647        1.9234229342        2.1524925807
 C         -0.9730555864        2.3809214644        2.7580364704
 C          0.0172672912        1.6209047420        3.5875833643
 H          0.5639752976        2.1519594608        4.3524208351
 H         -0.2118830629        0.5970644142        3.8457747817
 H         -1.1032567898        3.4348005363        2.9520417660
 H         -1.8805108147        1.8836400569        2.4466341648
 H          1.0700842932        2.6731444889        1.9430266182
