  62
        -98.94460519
 C         -1.2196800591       -1.1712411188        0.1434295123
 C         -2.0380047685       -0.6386686264        1.1715240548
 C         -2.6730036466        0.6536766481        0.8900257673
 C         -2.4130386764        1.2849229431       -0.2685375587
 C         -2.9639920397        2.6192937044       -0.6929850959
 C         -4.3597500862        2.5443192796       -1.3273012444
 C         -5.5030461751        2.2569756591       -0.3532972645
 H         -5.4552875292        2.9597766095        0.4791516235
 H         -6.4353572684        2.4485023591       -0.8881866323
 C         -5.5309772363        0.8198174937        0.1857207367
 H         -6.5504858346        0.4310865918        0.1351171678
 H         -4.9133788624        0.1803533074       -0.4493303932
 C         -5.0642805076        0.6765622624        1.6346684504
 H         -5.7537948905        1.2053257550        2.2964864346
 H         -5.0895784974       -0.3834436295        1.9010432652
 C         -3.6438334634        1.1957760568        1.8945510786
 H         -3.3256827779        0.8526630223        2.8824915908
 H         -3.6329341548        2.2858387856        1.8858166088
 H         -4.5523093210        3.5078911206       -1.8044716616
 H         -4.3479916200        1.7818221220       -2.1094363191
 H         -2.9865277282        3.2942624154        0.1632743021
 H         -2.2709757480        3.0245095722       -1.4333369713
 O         -1.5722449672        0.7724533781       -1.2037328388
 C         -0.9547736410       -0.4636845481       -1.0296175794
 O         -0.2135854131       -0.7887994762       -1.9734521165
 O         -2.2265561724       -1.2158207703        2.2762272768
 C         -0.5514429765       -2.5098897608        0.3967579244
 C          0.9201132712       -2.4228275208        0.0787441305
 C          1.5508688155       -3.2081167800       -0.8767476993
 C          2.9081782110       -3.0707158897       -1.1087338681
 C          3.6591750398       -2.1518342487       -0.4000607713
 C          3.0378972138       -1.3609979792        0.5605315507
 C          1.6803959853       -1.5052381404        0.7950972480
 H          1.2061843302       -0.8870581552        1.5443692688
 N          3.7835186471       -0.4368593129        1.3159658275
 S          3.2355050563        1.1283679837        1.5140210221
 O          4.3751332287        1.8384598090        2.0537326243
 O          2.0390573179        1.1433092564        2.3166925430
 C          2.8926255452        1.7114418367       -0.1335404556
 C          3.9567091729        2.0560827562       -0.9446482386
 C          3.7033932978        2.4579370477       -2.2453650938
 C          2.3980406716        2.5002278640       -2.7124622708
 C          1.3414934906        2.1561995683       -1.8845069505
 C          1.5897769435        1.7564490439       -0.5814358628
 H          0.7941584155        1.4773718663        0.0923859425
 H          0.3261962735        2.1717189243       -2.2470853374
 H          2.1996975965        2.8040244496       -3.7282107011
 H          4.5210940273        2.7319077808       -2.8923960384
 H          4.9549260663        2.0202069372       -0.5391313746
 H          4.7703280431       -0.4341441031        1.0995428625
 H          4.7174735841       -2.0449086362       -0.5835884216
 H          3.3861498983       -3.6830231442       -1.8581112977
 H          0.9764805847       -3.9136004718       -1.4538361628
 H         -0.6473280631       -2.6565877157        1.4864169311
 C         -1.2472096765       -3.6934828521       -0.2588934150
 C         -2.7210252972       -3.6649807721       -0.5306423066
 C         -1.7490616860       -3.6551409067       -1.6701654772
 H         -1.6574076475       -4.5494701624       -2.2691782947
 H         -1.6113432822       -2.7411694031       -2.2255517085
 H         -3.2948297613       -4.5610423623       -0.3471024646
 H         -3.2534059340       -2.7526931585       -0.3026016070
 H         -0.8437486865       -4.6399325113        0.0883530460
