  62
        -98.93924890
 C         -2.1324581062        0.2814046298       -0.3932842074
 C         -3.1224290598        0.6169701905        0.5630111017
 C         -4.1180945398       -0.4269559442        0.8432954938
 C         -4.0294906106       -1.6236583737        0.2370200298
 C         -4.9568564040       -2.7914759294        0.4376705149
 C         -6.2311832626       -2.7281681904       -0.4158518766
 C         -7.2608241010       -1.6879041993        0.0273231741
 H         -8.1837137950       -1.9001436013       -0.5160838893
 H         -7.4712188400       -1.8165983115        1.0894317003
 C         -6.8509333437       -0.2340173698       -0.2459160369
 H         -6.0374045940       -0.2156588958       -0.9749099740
 H         -7.6911331263        0.3034755374       -0.6912975585
 C         -6.4200617301        0.5471587914        0.9954800607
 H         -7.2679198450        0.6501880401        1.6762055401
 H         -6.1160216946        1.5486600995        0.6811267035
 C         -5.2507864139       -0.0830715942        1.7633855937
 H         -4.8807306816        0.6477711800        2.4862664139
 H         -5.5870728023       -0.9690905015        2.3009879074
 H         -5.9463688340       -2.5404093321       -1.4537571048
 H         -6.7005624024       -3.7137434905       -0.3734225922
 H         -4.3963473235       -3.6849317005        0.1543320773
 H         -5.2261211853       -2.8693512753        1.4913225027
 O         -3.0405584744       -1.9210895248       -0.6488915648
 C         -2.0914947542       -0.9767291484       -1.0004846813
 O         -1.2750607591       -1.3727042679       -1.8584740106
 O         -3.1947540629        1.7237747508        1.1563706270
 C         -1.0469562086        1.2599872942       -0.8140593750
 C         -0.0040892383        1.3786766802        0.2722303386
 C         -0.1464995581        2.2455112095        1.3503307482
 C          0.8371881323        2.3219898396        2.3196089399
 C          1.9861026904        1.5578670402        2.2240361805
 C          2.1318706130        0.6782999060        1.1571841660
 C          1.1346883460        0.5874536703        0.1971074258
 H          1.2552039582       -0.1073002785       -0.6229225841
 N          3.2768205518       -0.1264499506        1.0420328306
 S          3.8884261212       -0.4232226402       -0.5039179173
 O          3.7729836405        0.7672909996       -1.3157072418
 O          3.2772235041       -1.6196685044       -1.0260576994
 C          5.6029970825       -0.7381855043       -0.1246597760
 C          6.4981862597        0.3150836013       -0.1464767543
 C          7.8244025014        0.0748917418        0.1763536251
 C          8.2306389770       -1.2068738946        0.5162900618
 C          7.3212026428       -2.2539426570        0.5326546585
 C          5.9934945754       -2.0207951204        0.2102797847
 H          5.2524991410       -2.8032976504        0.1998280641
 H          7.6411023862       -3.2497523721        0.7939510784
 H          9.2632122147       -1.3916957874        0.7668948353
 H          8.5343395303        0.8860355838        0.1606516595
 H          6.1390265665        1.2921140943       -0.4273934502
 H          4.0052991937        0.1278972217        1.6951759897
 H          2.7607602131        1.6326729031        2.9721769396
 H          0.7133139747        2.9964684533        3.1533604355
 H         -1.0424012650        2.8380363917        1.4368856901
 H         -0.5581818122        0.8023297177       -1.6857360886
 C         -1.6057190592        2.6061389486       -1.2304711455
 C         -0.7316602340        3.5380368811       -2.0124604950
 C         -1.8922725425        2.8623436165       -2.6777642707
 H         -2.7571290097        3.4556692262       -2.9343911847
 H         -1.6864406419        2.0647952021       -3.3774963429
 H         -0.7977184195        4.5967275342       -1.8143185740
 H          0.2635429057        3.1964363132       -2.2578249222
 H         -2.2871635251        3.0356949032       -0.5083366115
