  62
        -98.93463865
 C         -1.8640215705       -0.6219964510       -0.0748031096
 C         -2.6192378407       -0.1490299009        1.0269296802
 C         -3.7218244707        0.7787217490        0.7256373899
 C         -3.9159784904        1.1775716289       -0.5426261701
 C         -4.9460806904        2.1414824889       -1.0760251604
 C         -6.3769449505        2.0198671889       -0.5337761907
 C         -6.8173249305        0.5929646189       -0.1749974507
 H         -7.7751746404        0.3862290688       -0.6559532809
 H         -6.0968841204       -0.1296755711       -0.5621830505
 C         -6.9938879908        0.3828314189        1.3309293993
 H         -7.5080948509        1.2518964289        1.7471300291
 H         -7.6379727808       -0.4852115411        1.4909380292
 C         -5.7056298609        0.1409121490        2.1167362296
 H         -5.9575727812        0.1277708791        3.1798370495
 H         -5.3023827609       -0.8457724610        1.8722886797
 C         -4.5872412109        1.1707966590        1.8884767697
 H         -3.9357658211        1.1593902991        2.7666948699
 H         -4.9920268909        2.1730028890        1.7701030396
 H         -6.4900423207        2.6567640489        0.3425153793
 H         -7.0395436903        2.4230271788       -1.3015252708
 H         -4.9492126001        1.9832303988       -2.1572377604
 H         -4.5823482204        3.1585439089       -0.9020577504
 O         -3.1201560702        0.7545326589       -1.5639925099
 C         -2.0847540302       -0.1512722411       -1.3693000497
 O         -1.4617060200       -0.4317925111       -2.4088402695
 O         -2.3738566609       -0.4778395609        2.2184236303
 C         -0.7423153205       -1.6041216709        0.2113735207
 C          0.5254878296       -1.1599364709       -0.4730288691
 C          1.1970789598       -1.9164017510       -1.4232122189
 C          2.3494852300       -1.4312673709       -2.0176693387
 C          2.8599403898       -0.1936368709       -1.6746457787
 C          2.2016610996        0.5669191291       -0.7157489488
 C          1.0512829995        0.0771116291       -0.1179295691
 H          0.5341472693        0.6744309391        0.6234101808
 N          2.7180579095        1.8214060592       -0.3510896888
 S          4.3673585895        1.9581872792       -0.1093615585
 O          4.5217462692        3.0507340593        0.8259088715
 O          5.0351497297        2.1185099692       -1.3770232283
 C          4.8618109994        0.4168701593        0.6418864917
 C          5.7766637695       -0.3979481007        0.0069631219
 C          6.1223812394       -1.6038833807        0.5957778321
 C          5.5470205292       -1.9735321706        1.8013067720
 C          4.6319461090       -1.1420045406        2.4290960917
 C          4.2841857091        0.0653923293        1.8459683416
 H          3.5797624990        0.7360296293        2.3117407814
 H          4.1854211889       -1.4305990606        3.3671458217
 H          5.8126244991       -2.9145642806        2.2564732421
 H          6.8350010495       -2.2513341907        0.1108942522
 H          6.1970988397       -0.0729884308       -0.9307532580
 H          2.1963286193        2.2894672392        0.3744935011
 H          3.7440089099        0.2050439791       -2.1451648285
 H          2.8535900301       -2.0232789010       -2.7660908886
 H          0.8030748699       -2.8736931310       -1.7211837089
 H         -0.5838206407       -1.5202375809        1.2998483707
 C         -1.1003498304       -3.0577692510       -0.0582354593
 C         -2.5180403404       -3.5327275010        0.0453744404
 C         -1.8370883101       -3.4925496910       -1.2881828995
 H         -1.5580708200       -4.4298243111       -1.7472077593
 H         -2.1265246600       -2.7307492411       -1.9947659996
 H         -2.7072535405       -4.4929878810        0.5012057604
 H         -3.2793325905       -2.7943332510        0.2522168402
 H         -0.3405482304       -3.7360560709        0.3174009009
