  62
        -98.93834497
 C         -2.2517076116       -0.9993691784        0.3916335381
 C         -2.4743442373       -0.1186165408       -0.6919213877
 C         -3.3395121109        1.0458331880       -0.4243204360
 C         -3.8498681164        1.2229034883        0.8086043808
 C         -4.7208282202        2.3231040085        1.3792502518
 C         -5.4394050869        3.3074533890        0.4600151140
 C         -6.5474557299        2.6926444288       -0.3943210747
 H         -7.3716669943        2.4029601493        0.2623777548
 H         -6.9193834405        3.4613228935       -1.0752141498
 C         -6.1496306919        1.4613156020       -1.2044379588
 H         -5.8718124033        0.6507187583       -0.5275888398
 H         -7.0306246022        1.1282755801       -1.7597688686
 C         -5.0206728720        1.6769933997       -2.2104137044
 H         -4.9504075745        0.7748491974       -2.8238397250
 H         -5.2697784296        2.5108311096       -2.8694809049
 C         -3.6304702376        1.9308929783       -1.6019146338
 H         -2.8798629792        1.6860749739       -2.3591450870
 H         -3.4985935176        2.9775417912       -1.3382503441
 H         -5.9009326384        4.0570185992        1.1087310498
 H         -4.7224332306        3.8316456432       -0.1648712641
 H         -5.4595253273        1.8190036742        2.0106273870
 H         -4.0748184116        2.8916514354        2.0576992572
 O         -3.5750134206        0.3606741325        1.8331913903
 C         -2.7840322335       -0.7604562412        1.6557184901
 O         -2.6260687586       -1.4481206617        2.6862199770
 O         -1.9703753623       -0.2870906095       -1.8319811486
 C         -1.3874711142       -2.2317100536        0.2019723781
 C          0.0045334312       -1.8381638481       -0.2323074508
 C          0.7070173682       -2.5014910829       -1.2295999466
 C          1.9894871668       -2.1037878923       -1.5666847994
 C          2.5984732189       -1.0439278010       -0.9211149546
 C          1.9107530539       -0.3818321867        0.0877676337
 C          0.6292953004       -0.7867218506        0.4273144720
 H          0.0962925893       -0.2717413165        1.2184672708
 N          2.5176604994        0.7035965751        0.7456746869
 S          4.0483032144        0.4703434414        1.3979729669
 O          4.2552840978       -0.9075183392        1.7803008296
 O          4.1639203450        1.4541677189        2.4525574328
 C          5.1511725242        0.9098981300        0.0714482692
 C          5.0183947111        2.1619868930       -0.4961849129
 C          5.8739600680        2.5241856709       -1.5242443187
 C          6.8440280748        1.6347296795       -1.9622750357
 C          6.9665927905        0.3827243548       -1.3794284438
 C          6.1131766228        0.0135381963       -0.3511759135
 H          6.1667662848       -0.9509722207        0.1280331511
 H          7.7214593048       -0.3069081910       -1.7213703477
 H          7.5083732134        1.9195028243       -2.7627991227
 H          5.7812587824        3.4967807731       -1.9801169183
 H          4.2534291201        2.8234489036       -0.1247911086
 H          1.9146407394        1.1546254548        1.4185234833
 H          3.5935410550       -0.7266985644       -1.1867550805
 H          2.5208127862       -2.6249315285       -2.3482661073
 H          0.2492273079       -3.3287858529       -1.7463282741
 H         -1.3088026333       -2.7027305003        1.1936425077
 C         -2.0647000319       -3.2008838883       -0.7451807451
 C         -1.8535316078       -4.6768955186       -0.5981302715
 C         -3.1692017002       -4.0668233410       -0.2211132092
 H         -4.0255003619       -4.2505937972       -0.8524849359
 H         -3.4123654019       -3.9777400075        0.8281629034
 H         -1.8098355958       -5.2835460810       -1.4900635263
 H         -1.2057185903       -5.0131928756        0.1974465328
 H         -2.1783858094       -2.7939213276       -1.7432175843
