  62
        -98.94266433
 C         -1.2036159696       -1.5668864756        0.5435029366
 C         -2.1721282610       -1.3021030823       -0.4519291302
 C         -3.2073221655       -0.3102118344       -0.1084602526
 C         -3.1632069423        0.2938723070        1.0916364352
 C         -4.0437524541        1.4059005277        1.5895303215
 C         -3.3942881194        2.7694698541        1.2921786619
 C         -3.7430047353        3.3630084276       -0.0714861048
 H         -4.7921941788        3.6675741476       -0.0765841396
 H         -3.1355520223        4.2627020088       -0.1951205605
 C         -3.4906743096        2.4372282040       -1.2642227989
 H         -3.4046143861        3.0591780878       -2.1577975073
 H         -2.5303250758        1.9328757794       -1.1335210588
 C         -4.6119436891        1.4094623088       -1.4792921886
 H         -4.9310976018        1.4391342467       -2.5231920041
 H         -5.4768636436        1.7000070545       -0.8827702267
 C         -4.2384521959       -0.0484159590       -1.1719448388
 H         -5.1484922912       -0.6027353749       -0.9188869940
 H         -3.8263350859       -0.5139199937       -2.0729046127
 H         -2.3085181413        2.6546794062        1.3652658985
 H         -3.7011407714        3.4817866774        2.0612308097
 H         -4.1218807258        1.2847428508        2.6719845868
 H         -5.0370261498        1.3398245121        1.1553695475
 O         -2.2188655862        0.0008252102        2.0270278217
 C         -1.2050560222       -0.9016159989        1.7682017196
 O         -0.3743465561       -1.0257958251        2.6927936972
 O         -2.1652029091       -1.8510887952       -1.5854446621
 C         -0.0337529067       -2.4839928215        0.2400996888
 C          0.8051512554       -1.8885948471       -0.8680969655
 C          1.4735489851       -2.6483727256       -1.8201211285
 C          2.2403450786       -2.0293503138       -2.7928706263
 C          2.3741067195       -0.6526380208       -2.8309591622
 C          1.7120311509        0.1154379142       -1.8801362700
 C          0.9408206439       -0.5088473874       -0.9145518220
 H          0.4126900562        0.1009125281       -0.1992043599
 N          1.7983651908        1.5153956329       -1.8719248559
 S          1.7862457168        2.3403361573       -0.4170799781
 O          0.4675745497        2.3325533044        0.1646028852
 O          2.3189697521        3.6449913938       -0.7489511027
 C          2.9566945739        1.4605900610        0.6024302028
 C          2.5411092112        0.6605170729        1.6463599733
 C          3.4925289925       -0.0478101559        2.3651640694
 C          4.8335311822        0.0548064077        2.0324580489
 C          5.2368866325        0.8711170440        0.9860039571
 C          4.2916527119        1.5776114148        0.2622333690
 H          4.5649470109        2.2317303877       -0.5497547655
 H          6.2811768069        0.9551135924        0.7321650370
 H          5.5668795359       -0.5020543760        2.5940281631
 H          3.1672746321       -0.6786443258        3.1772359781
 H          1.4931276506        0.5874822683        1.8932022243
 H          2.4522691592        1.9129486232       -2.5294191803
 H          2.9722013740       -0.1761298051       -3.5921362930
 H          2.7471692340       -2.6300617024       -3.5326681961
 H          1.3865607568       -3.7225397305       -1.8058024128
 H          0.5836069103       -2.4980814725        1.1515527602
 C         -0.5018848630       -3.8942127977       -0.0520520859
 C          0.3503359590       -5.0675215402        0.3256545081
 C         -0.9017894340       -4.7730411689        1.0938618415
 H         -1.7526650302       -5.4259268001        0.9706563983
 H         -0.8087729962       -4.3616645686        2.0887907251
 H          0.3582006555       -5.9291857826       -0.3247327491
 H          1.2955876309       -4.8667367151        0.8070178913
 H         -1.0904373984       -3.9564090644       -0.9596262132
