  62
        -98.93187694
 C         -1.9152795674       -1.6159053675        0.4973348494
 C         -2.4496866018       -0.8672566356       -0.5760846728
 C         -3.2310902509        0.3361679446       -0.2194265140
 C         -3.3733304612        0.6723965717        1.0740950219
 C         -4.0747051716        1.8639559069        1.6764491776
 C         -5.4321168961        2.2583258259        1.0751333287
 C         -5.3854192189        3.5532344236        0.2617213039
 H         -6.3863625476        3.9899673508        0.2427943379
 H         -4.7302864454        4.2608940653        0.7741467378
 C         -4.9233535982        3.3981139839       -1.1861073309
 H         -5.7047027442        2.9000079828       -1.7642062290
 H         -4.7987438456        4.4002670099       -1.6029056885
 C         -3.6175983282        2.6238812209       -1.3767405944
 H         -2.8872170091        2.9057947333       -0.6178151850
 H         -3.1941216823        2.9125662654       -2.3416210990
 C         -3.8051870171        1.0988027950       -1.3824174978
 H         -4.8665125694        0.8536209101       -1.4794729696
 H         -3.3139573209        0.6732265666       -2.2631245537
 H         -5.8213191538        1.4419812127        0.4692132429
 H         -6.1282805657        2.4078378984        1.9019718080
 H         -4.1962741533        1.6134374028        2.7329253280
 H         -3.3891823400        2.7150174436        1.6372818316
 O         -2.8238986903       -0.0695316721        2.0779269278
 C         -2.0830422918       -1.2051742981        1.8219100769
 O         -1.6384766468       -1.7688477831        2.8418574550
 H         -0.0082262892       -1.0026179087       -1.3385143444
 C          0.7468809228       -1.4409980909       -0.7019843976
 C          0.3893223960       -2.4392680708        0.1945418310
 C          1.3765325613       -2.9872035072        1.0039808414
 C          2.6853296698       -2.5432635542        0.9191105536
 C          3.0316519273       -1.5340511910        0.0376499913
 C          2.0501222865       -0.9799351922       -0.7727601565
 N          2.3870765231        0.1006603479       -1.6317352783
 S          2.3804408370        1.5714384506       -0.8008442032
 O          1.3119253212        1.6223163930        0.1746475024
 O          2.3631771964        2.5983513589       -1.8195535115
 C          3.9577773346        1.5641826467        0.0200226891
 C          5.0954826647        1.7412660104       -0.7433478844
 C          6.3313637373        1.7085017183       -0.1175280994
 C          6.4070561272        1.4981956383        1.2515643599
 C          5.2550256047        1.3227862453        2.0032539826
 C          4.0153296006        1.3552131720        1.3837106991
 H          3.0923849238        1.2194283682        1.9252128683
 H          5.3151772577        1.1582839370        3.0670637942
 H          7.3698474041        1.4709359477        1.7369414678
 H          7.2296980776        1.8450055416       -0.6976083902
 H          4.9867603331        1.9058856970       -1.8023598201
 H          1.7382081906        0.1837241245       -2.4043816086
 H          4.0458362066       -1.1754038226       -0.0286391662
 H          3.4411516739       -2.9792698256        1.5538835256
 H          1.1068265450       -3.7511438961        1.7184197624
 C         -1.0540164422       -2.8568038018        0.3133303300
 H         -1.1590456658       -3.4230984398        1.2521738531
 C         -1.5196369112       -3.7604994907       -0.8192442677
 C         -0.7413511034       -3.9737245981       -2.0796553849
 C         -0.8215037168       -5.0665998090       -1.0593831411
 H         -1.4174136091       -5.9395885770       -1.2776261508
 H          0.0641226323       -5.2682307467       -0.4758154069
 H         -1.2989979257       -4.0736950869       -2.9983044359
 H          0.1963617407       -3.4534067236       -2.1969176135
 H         -2.5999118540       -3.7600580369       -0.9182989775
 O         -2.2874913846       -1.1620242205       -1.7904551890
