  62
        -98.93432365
 C         -2.2417115228       -1.0576455527        0.4657474484
 C         -2.3468065567       -0.0502315298       -0.5223589934
 C         -3.2918292847        1.0496356773       -0.2412507039
 C         -3.9603592085        1.0727617780        0.9258158643
 C         -4.9496523148        2.0706139093        1.4910989712
 C         -5.6050406274        3.1165132394        0.5926901460
 C         -6.5623964450        2.5512011910       -0.4558988123
 H         -7.4422558543        2.1526908436        0.0556194496
 H         -6.8931291020        3.3738224400       -1.0936454242
 C         -5.9968529054        1.4381685823       -1.3346762660
 H         -6.7806475510        1.1337976685       -2.0335583240
 H         -5.7620271832        0.5678017119       -0.7183694977
 C         -4.7639186713        1.8141234586       -2.1543724538
 H         -4.9737645450        2.7081934498       -2.7444620044
 H         -4.5687786680        0.9931522520       -2.8495142439
 C         -3.4767522104        2.0507979699       -1.3449442961
 H         -2.6243910828        1.9234435149       -2.0187600415
 H         -3.4350893633        3.0646522819       -0.9542216445
 H         -4.8480669584        3.7368434017        0.1219536732
 H         -6.1851266072        3.7698562847        1.2502299731
 H         -4.4204748537        2.5899949803        2.2979400841
 H         -5.7305487534        1.4728661540        1.9721768866
 O         -3.7686823806        0.1140779245        1.8809779838
 C         -2.9199891002       -0.9595943305        1.6809637273
 O         -2.8473821434       -1.7410011291        2.6513635010
 O         -1.6876746124       -0.0495915801       -1.5927076435
 C         -1.3230795500       -2.2542428836        0.2928131045
 C          0.0277598648       -1.8054673683       -0.2107354805
 C          0.6388860956       -2.3146997843       -1.3481440425
 C          1.8912638156       -1.8656777089       -1.7305121598
 C          2.5580495846       -0.9039786291       -0.9950518119
 C          1.9567616035       -0.3879113483        0.1457596296
 C          0.7085278789       -0.8480097205        0.5326507704
 H          0.2409578940       -0.4469492959        1.4251521013
 N          2.6212780524        0.6050250708        0.8908548855
 S          4.1762079813        0.2627196799        1.4266146179
 O          4.3581298763       -1.1534584116        1.6498969648
 O          4.3800926002        1.1236025018        2.5717730123
 C          5.2228529601        0.8104704338        0.0950271466
 C          6.1404464439       -0.0593506978       -0.4607279248
 C          6.9537787817        0.3921864364       -1.4885509394
 C          6.8358639369        1.6981179262       -1.9389681763
 C          5.9102392354        2.5595221218       -1.3686118823
 C          5.0953036670        2.1152369712       -0.3397023645
 H          4.3651077013        2.7521068424        0.1313565537
 H          5.8206164520        3.5740131679       -1.7223527540
 H          7.4687910342        2.0470632227       -2.7395549184
 H          7.6737552507       -0.2757600118       -1.9333053250
 H          6.1907115068       -1.0678023619       -0.0824396803
 H          2.0667878597        0.9780186038        1.6480313296
 H          3.5292204257       -0.5462846118       -1.2958546690
 H          2.3517204924       -2.2663842474       -2.6206555868
 H          0.1276579522       -3.0490840178       -1.9481950630
 H         -1.1785298337       -2.6481650215        1.3134207850
 C         -1.9273431802       -3.3875511194       -0.5236580855
 C         -3.4126309094       -3.5701326304       -0.6118705455
 C         -2.6364776764       -3.1496786132       -1.8216830883
 H         -2.5027730131       -3.8681729325       -2.6171709497
 H         -2.7221065978       -2.1304387047       -2.1623471427
 H         -3.8079591676       -4.5741910500       -0.5731775790
 H         -4.0375521697       -2.8374651181       -0.1215241078
 H         -1.3393631468       -4.2971805115       -0.4477211834
