  62
        -98.94365809
 C         -2.6365406756       -0.1260706427       -0.2052442293
 C         -2.1708637300       -0.9127126558        0.8778103939
 C         -1.7587141844       -2.2863445781        0.5436202950
 C         -1.8138634164       -2.7080220665       -0.7313720828
 C         -1.3865357792       -4.0645820548       -1.2115970024
 C          0.0844529099       -4.0724388137       -1.6472424087
 C          1.0419356959       -3.4625561241       -0.6225054396
 H          2.0543107459       -3.5794240756       -1.0172428903
 H          0.8580105345       -2.3875841890       -0.5474877675
 C          0.9646220634       -4.0916353665        0.7753520086
 H          1.9812160881       -4.2437677894        1.1442859760
 H          0.4887940854       -5.0719772184        0.7154214014
 C          0.2407089401       -3.2365866413        1.8174338554
 H          0.4515157723       -3.6550544731        2.8059074165
 H          0.6442261843       -2.2206279483        1.8002125128
 C         -1.2846723637       -3.1567364733        1.6734091562
 H         -1.6999647013       -4.1634033077        1.5827343196
 H         -1.6791354840       -2.7017017292        2.5868984599
 H          0.1740979062       -3.5027233072       -2.5750640598
 H          0.3764093185       -5.1051143404       -1.8495927747
 H         -1.5440123472       -4.7897692167       -0.4153209578
 H         -2.0095450576       -4.3349374772       -2.0662642287
 O         -2.2525785801       -1.9224294316       -1.7483251112
 C         -2.6517460953       -0.6198577021       -1.5123577278
 O         -3.0191619655       -0.0063671461       -2.5367310287
 H         -0.4890513235        0.9720505920        0.7516652754
 C         -0.6217164267        1.8904305657        0.2010084157
 C         -1.8732746858        2.2449024262       -0.2763440461
 C         -2.0076045820        3.4490517094       -0.9589662328
 C         -0.9101690375        4.2630137681       -1.1736608777
 C          0.3468635941        3.8785710394       -0.7420918877
 C          0.4895248779        2.6802665828       -0.0530247116
 N          1.7450035493        2.2350311116        0.3927220433
 S          2.0360097464        0.5706971425        0.2649230888
 O          1.4315843291        0.0583629119       -0.9437063963
 O          1.6567279253       -0.0608577003        1.5021143961
 C          3.8137178765        0.5608462919        0.1199199044
 C          4.5768484534        0.6134608140        1.2710688583
 C          5.9577353490        0.6456309554        1.1581687879
 C          6.5490510811        0.6255804698       -0.0963457841
 C          5.7702071314        0.5698955521       -1.2425460392
 C          4.3884502976        0.5388835474       -1.1366620115
 H          3.7419255652        0.4863386881       -1.9982044308
 H          6.2323319646        0.5502050576       -2.2163560063
 H          7.6238973554        0.6502433952       -0.1814591128
 H          6.5661975012        0.6853653148        2.0471269113
 H          4.0712801720        0.6176061269        2.2226830881
 H          2.5116758915        2.7797499007        0.0213759054
 H          1.2100999837        4.4959408484       -0.9393194737
 H         -1.0289877262        5.1943144044       -1.7061774503
 H         -2.9762568056        3.7348750276       -1.3405238456
 C         -3.0595793873        1.3283216759       -0.0767329808
 H         -3.7573767033        1.5126430388       -0.9067917261
 C         -3.7673993385        1.6608255868        1.2222118414
 C         -4.7824075053        2.7623913356        1.2483760151
 C         -5.2218311819        1.3349590702        1.3710273620
 H         -5.5712579757        0.9759996069        2.3270351612
 H         -5.7177812908        0.8791249836        0.5261332305
 H         -4.8313946811        3.3924003952        2.1230142666
 H         -4.9946672012        3.2756500947        0.3230141127
 H         -3.1390947008        1.5319517726        2.0937668569
 O         -2.1022042625       -0.5179772080        2.0724182386
