  62
        -98.93894234
 C          2.4310438124       -0.8724505896       -0.8301358374
 C          3.3333180595       -0.6473971162        0.2386117406
 C          4.1702762254        0.5546411374        0.1213273446
 C          4.0356702223        1.3683074350       -0.9410832606
 C          4.8377415442        2.6118184017       -1.2140980705
 C          4.3158992734        3.8652497323       -0.4984037229
 C          4.5598143104        3.9020881432        1.0107434300
 H          5.6138200815        3.7087674662        1.2124314023
 H          4.3454805216        4.9190453863        1.3452388940
 C          3.6919627834        2.9248947756        1.8162769930
 H          3.2723613994        3.4393145091        2.6837584032
 H          2.8494014872        2.5937196505        1.2044512865
 C          4.4370185850        1.6955340277        2.3362121412
 H          5.1955748749        2.0048842065        3.0587503694
 H          3.7193322892        1.0539405704        2.8540792835
 C          5.1161456935        0.8602504627        1.2432953720
 H          5.9984436221        1.3778116002        0.8673275324
 H          5.4272799592       -0.0903015703        1.6833924720
 H          3.2458764968        3.9609678546       -0.6963728401
 H          4.8155821874        4.7271430500       -0.9465797776
 H          5.8792162788        2.4421267257       -0.9394732987
 H          4.7858125404        2.7840803810       -2.2913046569
 O          3.1336418953        1.1326811556       -1.9313229804
 C          2.3013675482        0.0279686421       -1.8891700481
 O          1.4988272085       -0.0441573241       -2.8434091070
 H         -0.5785563570       -0.4741521398       -1.0474213153
 C         -0.5863426294       -0.9822459755       -0.0907458430
 C          0.4345465305       -1.8809685099        0.1970645301
 C          0.4256787044       -2.5278573293        1.4250417040
 C         -0.5798473289       -2.2695602354        2.3415572268
 C         -1.5918389508       -1.3725129576        2.0543228004
 C         -1.5942180478       -0.7229244633        0.8258038581
 N         -2.6182175593        0.1982992593        0.5259340558
 S         -4.1967191291       -0.3222720637        0.8439751901
 O         -4.4723450349       -0.1076946927        2.2423869538
 O         -4.3752542509       -1.6755169901        0.3667377647
 C         -5.1539181748        0.8132656475       -0.1401827448
 C         -5.5170255790        0.4487732643       -1.4228949890
 C         -6.2486196223        1.3404652572       -2.1913005092
 C         -6.6004166964        2.5754860232       -1.6675740333
 C         -6.2283503096        2.9269721050       -0.3784750443
 C         -5.4975577219        2.0397671433        0.3956303630
 H         -5.1940961423        2.2652943342        1.4046037524
 H         -6.5061719925        3.8870806626        0.0254388746
 H         -7.1709102067        3.2667946127       -2.2675191653
 H         -6.5416476465        1.0686124404       -3.1926366933
 H         -5.2316251840       -0.5258164208       -1.7858201610
 H         -2.5421063826        0.5437008048       -0.4216431798
 H         -2.3846557581       -1.1731542010        2.7572564592
 H         -0.5758459098       -2.7762485993        3.2950625810
 H          1.2118844952       -3.2225123702        1.6695204969
 C          1.5092117439       -2.0821006413       -0.8446857858
 H          1.0212564290       -2.0728778524       -1.8293050368
 C          2.2731038380       -3.3802499309       -0.6979756541
 C          1.6030804517       -4.6680162452       -1.0686029966
 C          2.6990129217       -4.1180626424       -1.9300152481
 H          3.6572188417       -4.6154537016       -1.9266183217
 H          2.4328227222       -3.6912552685       -2.8862857930
 H          1.8070761115       -5.5458099735       -0.4748198072
 H          0.5900076308       -4.6139109003       -1.4383576678
 H          2.9555274064       -3.3846679783        0.1421460766
 O          3.4531038406       -1.4051808722        1.2351509550
