  62
        -98.94374278
 C          1.7161076401        0.4012360746        0.6180087693
 C          2.9427592162        0.2923802311        1.3152640750
 C          4.1476353841        0.6099075368        0.5408305088
 C          4.0331210878        0.9932266883       -0.7440071199
 C          5.1668447220        1.3722974638       -1.6580008813
 C          5.8495648147        0.1759209645       -2.3349712438
 C          6.7261496616       -0.6775193713       -1.4175592360
 H          7.3090191162       -1.3420552615       -2.0584874655
 H          7.4310033244       -0.0349506245       -0.8889778748
 C          5.9443071858       -1.5281810209       -0.4067941415
 H          4.9003404214       -1.5990513912       -0.7211918597
 H          6.3450751330       -2.5443942764       -0.3984990478
 C          5.9944491012       -1.0100711449        1.0306573026
 H          7.0204409820       -1.0587598327        1.4022096518
 H          5.3802478314       -1.6658412066        1.6532988811
 C          5.4797082247        0.4251298403        1.2029700953
 H          5.3497890876        0.6167151729        2.2709617442
 H          6.2049771915        1.1349552080        0.8059122611
 H          5.0811669783       -0.4518144626       -2.7920936113
 H          6.4773806309        0.5701482528       -3.1373758712
 H          4.7389882632        2.0088695850       -2.4353406913
 H          5.9074589184        1.9498070979       -1.1041373299
 O          2.8329623375        1.1012749503       -1.3730645444
 C          1.6486176860        0.7882278909       -0.7205645668
 O          0.6294326312        0.9006752368       -1.4264031550
 O          3.0264116655       -0.0549271659        2.5241979259
 C          0.4254488088        0.0676908436        1.3440644042
 C         -0.2716147383       -1.0742320126        0.6475244974
 C          0.4452155184       -2.2405249047        0.3888494628
 C         -0.1467443023       -3.3023059654       -0.2656169097
 C         -1.4679179975       -3.2273368406       -0.6719492750
 C         -2.1944112612       -2.0717804277       -0.4137296695
 C         -1.5959192107       -1.0070747832        0.2476010802
 H         -2.1764227491       -0.1228068736        0.4453158347
 N         -3.5202560095       -1.9539372200       -0.8459868863
 S         -4.6414508896       -1.0429440682       -0.0139877150
 O         -4.4914905174       -1.1836091195        1.4158463371
 O         -5.9160129244       -1.4633175832       -0.5566608373
 C         -4.3271242968        0.6402676264       -0.5011357252
 C         -3.9710459361        0.9105915595       -1.8070259319
 C         -3.7489210271        2.2263628405       -2.1800878230
 C         -3.8916605944        3.2439043652       -1.2493263401
 C         -4.2578466191        2.9567293138        0.0564801683
 C         -4.4799071189        1.6427469856        0.4362323856
 H         -4.7566962594        1.3714292312        1.4429288111
 H         -4.3677747980        3.7501126127        0.7787637433
 H         -3.7136009325        4.2665698812       -1.5426656412
 H         -3.4587452835        2.4531083546       -3.1933552648
 H         -3.8593131521        0.0972777353       -2.5044201464
 H         -3.9200066094       -2.7773385895       -1.2697501074
 H         -1.9306638414       -4.0540511526       -1.1891125233
 H          0.4225341949       -4.1986858243       -0.4614500863
 H          1.4779084887       -2.2991421904        0.7053539515
 H          0.7320745233       -0.2769609859        2.3430543979
 C         -0.4323158009        1.3055109378        1.4982339504
 C         -1.4142553263        1.4052722003        2.6257160687
 C         -0.1662330502        2.2342235051        2.6433747745
 H         -0.2503467615        3.2971583476        2.4750744939
 H          0.6214187580        1.9616317853        3.3305969165
 H         -2.3563985917        1.8993117064        2.4439827047
 H         -1.4834966606        0.5684491842        3.3044030660
 H         -0.7004749982        1.7494372798        0.5457102760
