  62
        -98.94014311
 C         -2.0203288638        0.6914719899       -0.9273100565
 C         -2.8724198746        1.1633173532        0.1019031490
 C         -4.2665742150        0.6917456337        0.0432102870
 C         -4.6505545333       -0.1349629003       -0.9449450374
 C         -6.0192852613       -0.7346254585       -1.0824152464
 C         -6.1042635702       -2.0923231266       -0.3711837470
 C         -5.5664186151       -2.0747929646        1.0597715459
 H         -5.7073916601       -3.0763708989        1.4720142965
 H         -4.4902659420       -1.8878382306        1.0339592812
 C         -6.2384325009       -1.0444064971        1.9780946577
 H         -7.1891401704       -0.7285201752        1.5469717334
 H         -6.4596092761       -1.5211220682        2.9354292854
 C         -5.3843980945        0.1881213670        2.2809414430
 H         -4.3966113634       -0.1277042058        2.6256561548
 H         -5.8573342414        0.7357038998        3.1005434367
 C         -5.1982684157        1.1731902975        1.1199786035
 H         -6.1713676200        1.4346429983        0.6995200774
 H         -4.7431534920        2.0812509983        1.5261523609
 H         -7.1470746533       -2.4149384784       -0.3662369737
 H         -5.5260451808       -2.8205462988       -0.9448780604
 H         -6.7549778600       -0.0484899201       -0.6673100289
 H         -6.2273018536       -0.8772224225       -2.1442419095
 O         -3.8061761489       -0.5626478531       -1.9186568542
 C         -2.4793413360       -0.1714895125       -1.9263931011
 O         -1.8124300637       -0.6435789753       -2.8701697922
 H          1.5540826634       -0.4110325758       -1.8549974052
 C          1.3477749489       -0.5615084495       -0.8037869981
 C          0.2875981590        0.1105567436       -0.2140087309
 C          0.0267038272       -0.1075563744        1.1354516200
 C          0.8060499485       -0.9834349579        1.8688272137
 C          1.8625670762       -1.6535851197        1.2763221708
 C          2.1334870567       -1.4391003368       -0.0678800224
 N          3.2329359794       -2.0939758777       -0.6618865996
 S          4.7289235076       -1.7218035079        0.0034432172
 O          5.7012867035       -2.0766115728       -1.0046973226
 O          4.8584637225       -2.3820421433        1.2768111254
 C          4.6642442306        0.0460870289        0.2257124317
 C          4.9087476385        0.8519839354       -0.8687240529
 C          4.7594951522        2.2230969010       -0.7384779497
 C          4.3558767279        2.7609448286        0.4742397524
 C          4.1160719404        1.9384259569        1.5636588684
 C          4.2706154748        0.5666829695        1.4420466863
 H          4.0967517190       -0.1054064016        2.2659995321
 H          3.8024013206        2.3603726679        2.5048246747
 H          4.2234489803        3.8267176834        0.5693272138
 H          4.9483543217        2.8664445708       -1.5829472293
 H          5.2212890953        0.3947496839       -1.7941697368
 H          3.2680063779       -1.9809141667       -1.6653142729
 H          2.4865138850       -2.3329796699        1.8344627261
 H          0.5902996667       -1.1458409571        2.9140669226
 H         -0.7892976151        0.4236955620        1.6010967369
 C         -0.5497666418        1.0642533607       -1.0259072648
 H         -0.2902597555        0.9121420232       -2.0853049003
 C         -0.2731340018        2.5260569659       -0.6963705044
 C          0.5784287769        2.9715611419        0.4512052170
 C          1.0933764493        3.0916502245       -0.9490860483
 H          1.1741990759        4.0714823662       -1.3941239035
 H          1.8651326400        2.4005190635       -1.2544412125
 H          0.2768331550        3.8658383748        0.9743157287
 H          1.0159332583        2.2196575729        1.0886782802
 H         -1.1153989341        3.1632125828       -0.9431958409
 O         -2.5111062789        1.9338724791        1.0267620324
