  62
        -98.93427005
 C          1.8127296505        1.3325986895       -0.0456786710
 C          2.0348337704        0.1058277795       -0.7193233509
 C          3.4463190403       -0.2413843307       -0.9642253809
 C          4.4170778804        0.6089930891       -0.5880441410
 C          5.8891094304        0.3583941589       -0.7385455310
 C          6.4677213303       -0.3183567711        0.5118371591
 C          5.6656311402       -1.5309262009        0.9842676192
 H          6.1830883601       -1.9452481909        1.8522376592
 H          4.6822952002       -1.1983037108        1.3247919092
 C          5.4882866200       -2.6267939110       -0.0759541108
 H          6.2254234000       -2.4980969711       -0.8693570608
 H          5.6778081799       -3.5969694310        0.3882090993
 C          4.0891285500       -2.6946420508       -0.6916309507
 H          3.3390777500       -2.7305559507        0.1029069393
 H          4.0107561198       -3.6279997108       -1.2558442807
 C          3.7227299701       -1.5514944408       -1.6467300108
 H          2.7928460001       -1.8274681007       -2.1531747008
 H          4.5037613101       -1.4375274910       -2.4014199208
 H          6.4904389904        0.4135872590        1.3224117990
 H          7.4944826603       -0.6200839912        0.2972880191
 H          6.0585221503       -0.2653797611       -1.6139929809
 H          6.3876140605        1.3180526489       -0.8850591610
 O          4.1626174406        1.7929206692        0.0253870290
 C          2.8667585207        2.1715959294        0.3263535590
 O          2.7807730508        3.2680529095        0.9166133289
 O          1.1234231303       -0.6695822304       -1.1017536108
 C          0.4156630306        1.8295074198        0.3131185990
 C         -0.3061521795        0.7855281099        1.1290391291
 C         -0.0383502495        0.7773164400        2.4991477391
 C         -0.5952463896       -0.1695727299        3.3355480692
 C         -1.4482562298       -1.1335871398        2.8286969392
 C         -1.7209491698       -1.1424295799        1.4664700992
 C         -1.1587343797       -0.1869397200        0.6274920792
 H         -1.3628041897       -0.2696708800       -0.4234074608
 N         -2.5639654999       -2.1211944098        0.9291281693
 S         -3.4605255999       -1.9158687898       -0.4535703607
 O         -4.4704346400       -2.9513830196       -0.3642443706
 O         -2.6346005599       -1.9526772199       -1.6331421707
 C         -4.2545620897       -0.3219908296       -0.3224783908
 C         -4.6946208796        0.1304830005        0.9058692592
 C         -5.3513211894        1.3489797806        0.9751349191
 C         -5.5690674394        2.0857131606       -0.1789256309
 C         -5.1290107794        1.6146604604       -1.4057772909
 C         -4.4632100696        0.4013199503       -1.4796040308
 H         -4.0891178297        0.0064842602       -2.4103549308
 H         -5.2958045294        2.1874315204       -2.3035535109
 H         -6.0825434692        3.0323257106       -0.1211385810
 H         -5.6912786394        1.7184418407        1.9291712191
 H         -4.5193541497       -0.4595683095        1.7903805792
 H         -3.0023104400       -2.7432410797        1.5901326694
 H         -1.8841680398       -1.8805640797        3.4744589593
 H         -0.3670831396       -0.1563388299        4.3905287692
 H          0.6335315206        1.5235266199        2.9008692890
 H          0.6024173807        2.6732228098        0.9965264990
 C         -0.2630732593        2.4617099598       -0.8942641810
 C         -0.8851862894        1.7455923098       -2.0535102609
 C         -1.7481302293        2.4987566500       -1.0850878610
 H         -2.2008556392        3.4212433700       -1.4156751810
 H         -2.3542733494        1.9338660901       -0.3947615209
 H         -0.7301873294        2.1750375097       -3.0338348310
 H         -0.8957727596        0.6680455998       -2.0680367509
 H          0.2733991308        3.3702379497       -1.1602192011
