  62
        -98.94491196
 C         -1.8417826098       -1.2492117499       -0.0293768311
 C         -3.0791708997       -0.9510260102        0.5901100191
 C         -3.8907038497        0.0847431103       -0.0592583902
 C         -3.4406960697        0.6815421510       -1.1780979398
 C         -4.1658413696        1.7339640216       -1.9726546991
 C         -3.9931060195        3.1606260912       -1.4333932481
 C         -4.7455285695        3.4630718104       -0.1367973879
 H         -4.7146037295        4.5449998203        0.0067118028
 H         -5.7923429895        3.1798769505       -0.2506860781
 C         -4.1593980695        2.7836984395        1.1088528816
 H         -3.1404002596        2.4509170196        0.8961972014
 H         -4.0935560095        3.5090766789        1.9230756721
 C         -4.9713886196        1.5952785692        1.6241563008
 H         -4.4466295096        1.1675319786        2.4824387305
 H         -5.9490149396        1.9414184190        1.9666205711
 C         -5.1816087097        0.4796008799        0.5922313201
 H         -5.9069159297        0.7933722204       -0.1582600297
 H         -5.5729368897       -0.3980827504        1.1126158195
 H         -2.9274526595        3.3555125310       -1.2898860680
 H         -4.3534483795        3.8456343417       -2.2043083177
 H         -5.2273766296        1.4891047017       -2.0198633992
 H         -3.7554035396        1.6971087422       -2.9840840291
 O         -2.2447426897        0.3684895413       -1.7435806400
 C         -1.4133265897       -0.5978749491       -1.1868483006
 O         -0.3462295797       -0.7665870087       -1.8033161908
 O         -3.4876676098       -1.5262923109        1.6351329087
 C         -0.9702818698       -2.3310742703        0.5756893282
 C          0.4152065502       -1.8447497506        0.9281352785
 C          1.4891264202       -2.7236968607        1.0285267879
 C          2.7496946602       -2.2649455510        1.3673341382
 C          2.9772586103       -0.9191825712        1.5895599391
 C          1.9160085903       -0.0310398111        1.4749817497
 C          0.6452369103       -0.4991676908        1.1742766094
 H         -0.1757422597        0.2037175093        1.1055922799
 N          2.1469966604        1.3452916488        1.6367925407
 S          3.5060977504        1.9877385492        0.8944764711
 O          4.6277320404        1.8909080386        1.7971061410
 O          3.1289415205        3.3326479295        0.5153810720
 C          3.8265778404        0.9897949202       -0.5518468296
 C          5.1053993703        0.5138552703       -0.7643775999
 C          5.3541665303       -0.2685798490       -1.8801738104
 C          4.3222235903       -0.5705087083       -2.7556582906
 C          3.0442629703       -0.0835790984       -2.5298308103
 C          2.7929930103        0.7101555108       -1.4227412298
 H          1.7985670404        1.0830112908       -1.2357405295
 H          2.2263346203       -0.3275247279       -3.1886462605
 H          4.5117570502       -1.1909768478       -3.6173322910
 H          6.3477832203       -0.6472045789       -2.0581438007
 H          5.8732394203        0.7581465697       -0.0482073797
 H          1.3365016704        1.9188043490        1.4550011011
 H          3.9539697603       -0.5410926814        1.8454825394
 H          3.5688406701       -2.9622589811        1.4497589378
 H          1.3349441301       -3.7733337306        0.8396398972
 H         -1.4767532498       -2.6227309109        1.5088577780
 C         -0.9317261399       -3.5347493597       -0.3491624826
 C         -0.9548122500       -4.9289415701        0.2003606564
 C         -2.1637854899       -4.3761734395       -0.4903589332
 H         -2.4231536599       -4.7534906489       -1.4681157934
 H         -3.0182628899       -4.1049408899        0.1127352970
 H         -0.3818665100       -5.6914364597       -0.3055605241
 H         -1.0006214400       -5.0465028808        1.2726920364
 H         -0.3502176899       -3.3471246391       -1.2448434225
