  62
        -98.94699797
 C          1.5172911517        1.0715272384        0.0616547800
 C          2.5205861879        0.6015558357        0.9392543775
 C          3.0627052946       -0.7269101468        0.6373160750
 C          2.5590144808       -1.4352160028       -0.3903310552
 C          2.9802271108       -2.8208356984       -0.7990485365
 C          4.2206116553       -2.8596895015       -1.7023933570
 C          5.5439979469       -2.5472268138       -1.0027674324
 H          5.6444582558       -3.1803900906       -0.1206804125
 H          6.3437523879       -2.8208529919       -1.6937063495
 C          5.7170588193       -1.0747874440       -0.6051338817
 H          4.9995497774       -0.4624988304       -1.1559828686
 H          6.7150881388       -0.7353420281       -0.8907100266
 C          5.5559887031       -0.7983315655        0.8895884632
 H          5.6642089533        0.2768986468        1.0528471357
 H          6.3488446136       -1.3049212842        1.4442288539
 C          4.2029469688       -1.2306781495        1.4702952430
 H          4.1587962603       -2.3164092417        1.5579975683
 H          4.1022255448       -0.7963606800        2.4683594171
 H          4.0713238747       -2.1619460363       -2.5294653019
 H          4.2845123215       -3.8658319321       -2.1229926716
 H          2.1367923844       -3.2495050432       -1.3450873326
 H          3.1549032778       -3.4260910452        0.0912404525
 O          1.5662189047       -0.9644675031       -1.1880878958
 C          1.0159512259        0.2883617921       -0.9791201540
 O          0.1087982236        0.5911425773       -1.7779646658
 O          2.9340025503        1.2571813502        1.9358159919
 C          0.8923831370        2.4343738143        0.3087074891
 C         -0.5958574252        2.2622095433        0.4775448841
 C         -1.5472185138        3.0236405803       -0.1883843392
 C         -2.8958971885        2.7365332963       -0.0599419202
 C         -3.3216824892        1.6734671043        0.7156679800
 C         -2.3782215081        0.9259747808        1.4067810511
 C         -1.0351061240        1.2390960264        1.3095953109
 H         -0.3082825855        0.6361547379        1.8408537954
 N         -2.8100421545       -0.2279116614        2.1283095254
 S         -2.5473071023       -1.6131435370        1.1910859797
 O         -3.0655137761       -2.7173326481        1.9723640647
 O         -1.1565305217       -1.7351221340        0.8051183374
 C         -3.5847265576       -1.3115593335       -0.2181389461
 C         -3.0581352240       -0.6880853030       -1.3320925229
 C         -3.9028434562       -0.4094345548       -2.3960862252
 C         -5.2440540643       -0.7533623304       -2.3274620668
 C         -5.7543912038       -1.3811632289       -1.2006873717
 C         -4.9187213508       -1.6611861333       -0.1321131452
 H         -5.2648597570       -2.1486743227        0.7644261618
 H         -6.7975460876       -1.6487280012       -1.1510116310
 H         -5.8945506793       -0.5303671822       -3.1584917769
 H         -3.5011283440        0.0808015748       -3.2683097736
 H         -2.0106256846       -0.4260823908       -1.3586471383
 H         -2.3073591637       -0.3500366101        2.9985787511
 H         -4.3642185445        1.4108163420        0.7907423285
 H         -3.6211886679        3.3315605811       -0.5926767621
 H         -1.2298124293        3.8316238407       -0.8270976644
 H          1.3199287450        2.7877007241        1.2589734740
 C          1.2720018597        3.4027369566       -0.7915047437
 C          1.3515651289        4.8730270926       -0.5107598547
 C          2.6057181702        4.0825589664       -0.7280982681
 H          3.1559167884        4.2251648019       -1.6460000068
 H          3.2313760152        3.8650332538        0.1253464387
 H          1.0434512903        5.5625981944       -1.2819168381
 H          1.1292471206        5.2030029332        0.4926401431
 H          0.9193189199        3.0820740938       -1.7654564441
