  62
        -98.94533383
 C          2.3549066149        0.4129751631        0.0944280200
 C          1.5591970583       -0.2584684710       -0.8605581578
 C          1.6237006295       -1.7305670763       -0.8569068639
 C          2.3841910704       -2.3511325463        0.0615910735
 C          2.6764668771       -3.8226022201        0.2351467570
 C          1.5626850674       -4.8305562153       -0.0571817379
 C          0.1693989518       -4.4080382434        0.4301889179
 H         -0.2551831804       -5.2089195688        1.0387793661
 H          0.2416041128       -3.5217580447        1.0646424207
 C         -0.8001566210       -4.1140599698       -0.7154164703
 H         -0.6892730276       -4.8801162153       -1.4864935175
 H         -1.8218826553       -4.1729041603       -0.3318589975
 C         -0.6325537296       -2.7305869448       -1.3381758850
 H         -0.8775266103       -1.9761847189       -0.5866955340
 H         -1.3583207482       -2.6306333106       -2.1493103042
 C          0.7715370368       -2.4194442842       -1.8853533657
 H          1.2518036916       -3.3159818740       -2.2706749699
 H          0.6635956996       -1.7050817584       -2.7060673008
 H          1.5235023714       -5.0350173242       -1.1258900251
 H          1.8525669999       -5.7630194839        0.4310865404
 H          3.5454578736       -4.0624032493       -0.3864166346
 H          2.9930842290       -3.9259062114        1.2765873683
 O          3.0945583763       -1.6612233520        1.0019694474
 C          3.0980742251       -0.2794295022        1.0461731516
 O          3.7929170356        0.2076174301        1.9633467624
 H          0.4055572036        0.9697995883        1.6490372952
 C          0.0844635034        1.8370484019        1.0902177711
 C          0.9766079728        2.4774830323        0.2401070029
 C          0.5392626587        3.5986537951       -0.4550281922
 C         -0.7640370275        4.0449078841       -0.3194327878
 C         -1.6626536575        3.3724319016        0.4885056728
 C         -1.2321672505        2.2547027489        1.1937233998
 N         -2.1125825419        1.5155487249        2.0121767761
 S         -2.3970817550       -0.0772483912        1.5703565375
 O         -3.3735927073       -0.5609193152        2.5233519535
 O         -1.1535569158       -0.8003819510        1.5133208761
 C         -3.1606173361        0.0392716616       -0.0392731680
 C         -2.3937611266        0.3561519976       -1.1430513455
 C         -3.0255223524        0.5064038343       -2.3687649087
 C         -4.3978456509        0.3428141010       -2.4713613894
 C         -5.1527588782        0.0261074747       -1.3518232923
 C         -4.5307604931       -0.1222507412       -0.1233029212
 H         -5.0743790274       -0.3692123152        0.7743789382
 H         -6.2200848345       -0.1034500196       -1.4317047070
 H         -4.8803727206        0.4615129981       -3.4287647560
 H         -2.4295446137        0.7509839990       -3.2333203147
 H         -1.3243370567        0.4711210483       -1.0551777594
 H         -2.9999557083        1.9744000531        2.1692548646
 H         -2.6866089948        3.7038878972        0.5739134904
 H         -1.0889740999        4.9173984732       -0.8652328508
 H          1.2191648750        4.1210749752       -1.1079359916
 C          2.3788632161        1.9302311990        0.1307160426
 H          2.9276856432        2.2037977262        1.0444204666
 C          3.1349942049        2.4614817335       -1.0710733039
 C          3.9250290683        3.7310466825       -0.9722744264
 C          4.6322673787        2.4129729929       -1.0594619575
 H          5.1478242239        2.1605317359       -1.9738667054
 H          5.1060576115        2.0226312972       -0.1701309464
 H          3.9309192942        4.2446853753       -0.0227383735
 H          3.9602925533        4.3853937432       -1.8302781569
 H          2.6351610715        2.2381756438       -2.0067528834
 O          0.8414730307        0.3465898840       -1.7001934514
