  62
        -98.93400433
 C          1.7805416592       -0.0415909156       -0.3475383132
 C          2.7628446426       -0.7131117405        0.4188120304
 C          4.1025005561       -0.0913300782        0.4606738294
 C          4.3255797903        1.0625130938       -0.1932451684
 C          5.5590830457        1.9369291391       -0.2828716576
 C          6.9282413942        1.4039703856        0.1322155709
 C          7.4769433222        0.2870195774       -0.7546157331
 H          7.7145325620        0.7065629944       -1.7355265366
 H          8.4087692290       -0.0723070492       -0.3123833959
 C          6.5417740917       -0.8994813331       -0.9747134895
 H          5.6536126426       -0.5700714268       -1.5180738767
 H          7.0606104302       -1.6191383116       -1.6139258207
 C          6.1056925477       -1.6325029851        0.2925496827
 H          6.9856772867       -1.9273653074        0.8673297930
 H          5.5879761443       -2.5440717906       -0.0176159419
 C          5.1538493366       -0.8523402848        1.2163413884
 H          4.6201410128       -1.5761465694        1.8389146094
 H          5.7016441868       -0.1899380710        1.8821407681
 H          7.6215428532        2.2470880855        0.0673794576
 H          6.9117965362        1.0901933463        1.1717125848
 H          5.6071968458        2.2744455257       -1.3231475113
 H          5.3372636842        2.8259035568        0.3181748523
 O          3.3378341324        1.6872075899       -0.9010869709
 C          2.0659163454        1.1568011186       -1.0042582395
 O          1.2876329372        1.8327526059       -1.7081236143
 H         -1.9149697245        0.9137922492       -0.6800968387
 C         -1.6520219312        0.6816098593        0.3410880171
 C         -0.5083283620       -0.0543386140        0.6146624670
 C         -0.1685745122       -0.3004247695        1.9425525289
 C         -0.9583038690        0.1837538216        2.9680951444
 C         -2.1017389769        0.9136375879        2.6928657366
 C         -2.4462230196        1.1703549140        1.3711139567
 N         -3.5886569067        1.9219609637        1.0702140664
 S         -4.4766246947        1.6373147088       -0.3093825032
 O         -3.8122400012        2.1818603787       -1.4666134493
 O         -5.7802461911        2.1923842404       -0.0127506723
 C         -4.6027905972       -0.1369938730       -0.4581969383
 C         -4.3868093439       -0.7245451514       -1.6879413048
 C         -4.5193129422       -2.0992887038       -1.8092633167
 C         -4.8569607641       -2.8604182040       -0.7011146558
 C         -5.0698384511       -2.2557316157        0.5281111622
 C         -4.9476533438       -0.8813363055        0.6530005970
 H         -5.1173029022       -0.3860801992        1.5948981273
 H         -5.3296847618       -2.8504400059        1.3888342940
 H         -4.9508298680       -3.9303301369       -0.7964841325
 H         -4.3516182962       -2.5696206048       -2.7649387753
 H         -4.1111537939       -0.0969719342       -2.5208018429
 H         -4.1646414953        2.1760672541        1.8584042351
 H         -2.7161839748        1.2953010099        3.4939419176
 H         -0.6835768021       -0.0115425135        3.9935899563
 H          0.7213282566       -0.8721990171        2.1561812440
 C          0.3580495027       -0.5538493163       -0.5126970123
 H         -0.0082577560       -0.0841902495       -1.4396300550
 C          0.2893551065       -2.0634030314       -0.7073009590
 C         -0.4008205827       -2.9938848092        0.2406164714
 C         -1.0142593489       -2.6978439232       -1.0921911049
 H         -1.0129736391       -3.4662773574       -1.8500285997
 H         -1.8848063607       -2.0589394645       -1.1101221356
 H          0.0507261592       -3.9604624375        0.4031679007
 H         -0.8683578538       -2.5779332840        1.1184956956
 H          1.1787260247       -2.4496374929       -1.1938332177
 O          2.5564075601       -1.7786352924        1.0527340878
