  62
        -98.93374402
 C         -2.0793479994       -0.4671605306        0.3803843896
 C         -2.8092755995        0.7416905894        0.2739323106
 C         -4.1797716995        0.6663367697       -0.2666803995
 C         -4.6595052294       -0.5354906900       -0.6364188605
 C         -6.0260124493       -0.8728792098       -1.1710867008
 C         -7.1052767193       -0.8797067007       -0.0768017508
 C         -7.0418839395        0.2951871585        0.8955386701
 H         -7.7863723695        0.1201482978        1.6767806800
 H         -6.0631597995        0.3088273382        1.3787035602
 C         -7.3232908696        1.6644070089        0.2812405412
 H         -8.3156507996        1.6554493292       -0.1751641788
 H         -7.3410565697        2.3889672783        1.0995364818
 C         -6.3131493996        2.1515249399       -0.7600898584
 H         -6.4951828297        3.2190307600       -0.9153578375
 H         -6.4740748896        1.6688712406       -1.7203584587
 C         -4.8522435596        2.0157503797       -0.3424055784
 H         -4.2363027897        2.6121613403       -1.0266183680
 H         -4.7147084097        2.4783075889        0.6418176519
 H         -8.0843816093       -0.9043637205       -0.5581647808
 H         -6.9913991592       -1.7982196312        0.5041061685
 H         -6.2921995894       -0.1908730191       -1.9731221302
 H         -5.9564711192       -1.8765024094       -1.5963684716
 O         -3.9198815592       -1.6736337701       -0.5244489314
 C         -2.6244200292       -1.6834114303       -0.0318164814
 O         -2.1009946591       -2.8120224003       -0.0227001623
 H          1.3381876804        1.4460702493        0.9119783312
 C          1.3139085105        0.8403323900        0.0190610407
 C          0.3412349006       -0.1358529899       -0.1391811001
 C          0.3361189207       -0.8920170090       -1.3078718907
 C          1.2784380107       -0.6670582781       -2.2944165805
 C          2.2567940306        0.2978962019       -2.1258942997
 C          2.2754186405        1.0521026409       -0.9598176691
 N          3.2718124804        2.0255617709       -0.7339857083
 S          4.3434619404        1.7083903900        0.5155751214
 O          3.6198205704        1.5906104889        1.7537594013
 O          5.3427935103        2.7493531001        0.4411410323
 C          5.0646576506        0.1394565604        0.0658538102
 C          6.2340212706        0.1257201111       -0.6693360898
 C          6.7469224107       -1.0907773385       -1.0899382608
 C          6.0783937008       -2.2657572788       -0.7802512917
 C          4.9039196008       -2.2348879895       -0.0440355117
 C          4.3885895407       -1.0215650899        0.3837599592
 H          3.4807796507       -0.9616909305        0.9610466093
 H          4.3825158109       -3.1472384198        0.1978515275
 H          6.4747909109       -3.2121005085       -1.1128008525
 H          7.6617730907       -1.1189265379       -1.6596603708
 H          6.7219105005        1.0628594213       -0.8841517991
 H          3.7938988804        2.2697123316       -1.5646001581
 H          2.9973582806        0.4686486826       -2.8927525096
 H          1.2584043408       -1.2570176974       -3.1980129610
 H         -0.4109305092       -1.6619499090       -1.4289147713
 C         -0.6768298594       -0.3659599809        0.9492065397
 H         -0.6914032995        0.5413399786        1.5745641104
 C         -0.3027733293       -1.5348270616        1.8516926388
 C          0.7802220708       -2.5119181312        1.5160557380
 C          0.9948520607       -1.5052389121        2.6043219788
 H          1.0043473107       -1.8448365729        3.6291879985
 H          1.6616022306       -0.6750116518        2.4165490095
 H          0.6219951209       -3.5440089514        1.7886397472
 H          1.3078170508       -2.3849974904        0.5835663081
 H         -1.1625375292       -1.9324718021        2.3803590484
 O         -2.3366593696        1.8558552492        0.6309901015
