  62
        -98.93491690
 C          2.6586204086        0.5382935594       -0.3013066801
 C          2.2328634029        1.3671120494        0.7626197385
 C          1.4331454843        2.5568111632        0.3904376881
 C          1.1408779743        2.7779826155       -0.9015538032
 C          0.2731363387        3.8539353083       -1.4965409726
 C         -1.1922027061        3.3879551561       -1.5676500104
 C         -2.0371346871        3.7553294805       -0.3502308307
 H         -2.1464311961        4.8413763598       -0.2995793234
 H         -3.0306109905        3.3270411502       -0.5024813183
 C         -1.4887244806        3.2488397038        0.9850295983
 H         -2.3085258615        3.2455893587        1.7069237342
 H         -1.1598548051        2.2128075048        0.8762943050
 C         -0.3431224188        4.1094476383        1.5370901215
 H         -0.2884601459        5.0438485505        0.9789405753
 H         -0.5611615583        4.3786552311        2.5732497606
 C          1.0277704691        3.4275291243        1.5505819325
 H          1.8025585563        4.1915120497        1.6870150293
 H          1.0884136949        2.7683607050        2.4230396135
 H         -1.1968277402        2.3016148456       -1.6940326024
 H         -1.6582390164        3.8278444726       -2.4521130812
 H          0.3661823544        4.7836908562       -0.9430422066
 H          0.6405514661        4.0135386184       -2.5125095211
 O          1.5893920752        1.9632507954       -1.8983504846
 C          2.3203773298        0.8286942452       -1.6259358650
 O          2.6389777394        0.1660711390       -2.6358827864
 H          0.8172936447       -0.8914188920        0.7173282355
 C          1.0692397645       -1.7509486925        0.1139902116
 C          2.3568321165       -1.8917094817       -0.3814602993
 C          2.6572206521       -3.0135551326       -1.1438826361
 C          1.6815756468       -3.9564787194       -1.4178812277
 C          0.3846240671       -3.7815759072       -0.9697845899
 C          0.0763227928       -2.6638336984       -0.2025566806
 N         -1.2295961556       -2.4224916274        0.2583407771
 S         -1.7163580902       -0.7982217058        0.2853477625
 O         -1.2389132542       -0.1176142277       -0.8963163166
 O         -1.3458603022       -0.2365701660        1.5587081621
 C         -3.4883213375       -0.9853388150        0.2146435555
 C         -4.1761594616       -1.2545916110        1.3828310670
 C         -5.5491156197       -1.4340105641        1.3251531699
 C         -6.2076022110       -1.3414554471        0.1078225651
 C         -5.5043762229       -1.0670818320       -1.0555805027
 C         -4.1306833683       -0.8884908531       -1.0050828032
 H         -3.5426274905       -0.6646517136       -1.8809965370
 H         -6.0187985049       -0.9911128180       -1.9999626653
 H         -7.2762167317       -1.4808601834        0.0656618092
 H         -6.0995195401       -1.6436872071        2.2279898592
 H         -3.6214624441       -1.3060599826        2.3051553262
 H         -1.9187182943       -3.0152866148       -0.1846163605
 H         -0.3851147345       -4.4963275914       -1.2184032245
 H          1.9261835624       -4.8225071710       -2.0140458502
 H          3.6519684253       -3.1282955542       -1.5487636858
 C          3.3685620307       -0.7987730251       -0.1319984744
 H          4.1116601040       -0.8537685852       -0.9457928000
 C          4.1166674201       -0.9690471727        1.1789081832
 C          3.5693553542       -1.7569147437        2.3268630352
 C          4.7202470369       -2.2958744134        1.5344064410
 H          5.6990064333       -2.3082613060        1.9891934578
 H          4.5250001380       -3.1285918081        0.8761460222
 H          3.7463309240       -1.3782036432        3.3216604425
 H          2.6013751835       -2.2194965974        2.2065651066
 H          4.6930995804       -0.0870894479        1.4340827708
 O          2.4931301088        1.1547165006        1.9759507487
