  62
        -98.93488239
 C         -0.8160912234       -1.5479620871        0.7299020688
 C         -1.5366555696       -1.2432814249       -0.4523241363
 C         -2.5229206735       -0.1525602661       -0.3367615207
 C         -2.6846633590        0.4932822869        0.8302903550
 C         -3.5907744403        1.6660419934        1.0987835493
 C         -5.1041033544        1.4033615348        0.9772496110
 C         -5.6959535241        1.7335457940       -0.3985218220
 H         -6.6713039079        2.2037988308       -0.2576299343
 H         -5.0592857861        2.4727874696       -0.8865437734
 C         -5.9066921139        0.5425992675       -1.3384618204
 H         -6.0836524787        0.9357960880       -2.3419543832
 H         -6.8057603479        0.0018403216       -1.0339446333
 C         -4.7627140767       -0.4697565851       -1.3992942262
 H         -4.9481390017       -1.1451829675       -2.2369104691
 H         -4.7704986714       -1.0870592305       -0.4976225046
 C         -3.3599198658        0.1516913139       -1.5442580916
 H         -2.8413033439       -0.2840913879       -2.4011508224
 H         -3.4257513040        1.2276419302       -1.7024571073
 H         -5.5943246741        2.0371451744        1.7179073874
 H         -5.3166882411        0.3688024928        1.2453219663
 H         -3.3092746874        2.4840920871        0.4311334288
 H         -3.3668578126        1.9778303712        2.1210284817
 O         -1.9734110497        0.1667720074        1.9446794955
 C         -1.0331999562       -0.8505011758        1.9207071766
 O         -0.4620357695       -1.0394499357        3.0128577957
 O         -1.3846639579       -1.8297041339       -1.5531638049
 C          0.2749079335       -2.6031828343        0.8051169145
 C          1.6257045791       -1.9813148819        0.5509675301
 C          2.7198046996       -2.3113464254        1.3428267228
 C          3.9589686096       -1.7449100194        1.1039680774
 C          4.1246016257       -0.8227655341        0.0865260949
 C          3.0351165248       -0.4772876741       -0.7046578571
 C          1.7988567211       -1.0646756987       -0.4769293203
 H          0.9685758899       -0.7991597706       -1.1130891976
 N          3.1656701279        0.4717032638       -1.7353194788
 S          2.0649761207        1.7331401968       -1.7864761622
 O          0.7928518449        1.2785806516       -2.2815228230
 O          2.7270321212        2.7534504997       -2.5711052063
 C          1.9275667567        2.2621504476       -0.0897073314
 C          0.8440068692        1.8598896157        0.6628953323
 C          0.7885473954        2.2127562742        2.0019853414
 C          1.8145893087        2.9587231690        2.5607330628
 C          2.8936231250        3.3636633125        1.7890489837
 C          2.9560645079        3.0088667515        0.4517058564
 H          3.7722412668        3.3105363417       -0.1845656606
 H          3.6858229326        3.9484938438        2.2278783186
 H          1.7684575056        3.2249751197        3.6048465577
 H         -0.0463221554        1.8853023709        2.6017489853
 H          0.0640641927        1.2793235086        0.1940964781
 H          4.1052305598        0.8257886709       -1.8497678140
 H          5.0875629672       -0.3707942404       -0.0954279135
 H          4.8009661602       -2.0134675335        1.7230865193
 H          2.5895796214       -3.0079133260        2.1577397182
 H          0.2703418858       -2.9546637927        1.8497882823
 C          0.0140958651       -3.8149967543       -0.0781795801
 C          0.7506260982       -4.0753904947       -1.3538874377
 C          1.0193315442       -4.9263267593       -0.1513221913
 H          0.6618040761       -5.9448474719       -0.1477820375
 H          1.9600658996       -4.7845797717        0.3584249669
 H          0.1908954130       -4.4907693768       -2.1778804191
 H          1.5027908616       -3.3649135299       -1.6604433154
 H         -1.0311114274       -4.1060739070       -0.0619038095
