  62
        -98.94556647
 C          1.9677976200        1.5125494799       -0.1022319300
 C          1.6845038897        0.2635562800       -0.7068935102
 C          2.8092560194       -0.6819941603       -0.7666130102
 C          4.0144233195       -0.3052467207       -0.3020159400
 C          5.2291111292       -1.1855439510       -0.2556161401
 C          5.3243632389       -1.9241130213        1.0868088498
 C          4.0258697986       -2.6153290910        1.5031746796
 H          4.2197792884       -3.1292972612        2.4472278695
 H          3.2652194088       -1.8565716008        1.7013799696
 C          3.4844321485       -3.6187954407        0.4756197594
 H          4.2765951684       -3.8995740408       -0.2194555806
 H          3.1792279881       -4.5259459307        1.0014973392
 C          2.2672857087       -3.1291292302       -0.3116549707
 H          1.5076586787       -2.7566351401        0.3799848893
 H          1.8431517185       -3.9876863200       -0.8384978808
 C          2.5384037191       -2.0379162601       -1.3548385205
 H          3.3557904891       -2.3465827702       -2.0095972304
 H          1.6338977692       -1.9220511497       -1.9587400305
 H          6.1266940187       -2.6612386015        1.0199739498
 H          5.5915789790       -1.2013853515        1.8614289500
 H          5.1860417991       -1.9010317809       -1.0742981002
 H          6.1140155194       -0.5588311513       -0.3790316599
 O          4.2552632798        0.9195969992        0.2333500702
 C          3.2360717200        1.8478167294        0.3697272902
 O          3.5788724803        2.9157792892        0.9170538104
 H         -1.7902260797        2.3142159310       -0.7054686502
 C         -1.5817913900        1.8600126108        0.2503642898
 C         -0.3011538200        1.9056472404        0.7755470599
 C         -0.0691348503        1.3098899001        2.0128568998
 C         -1.0880292905        0.6752037503        2.6961758796
 C         -2.3630038705        0.6173745407        2.1600321995
 C         -2.6056444902        1.2120346510        0.9302152396
 N         -3.8974339602        1.1519185015        0.3726856894
 S         -4.6023832306       -0.3609901783        0.2221426291
 O         -5.6566302205       -0.1862944779       -0.7519678510
 O         -5.0142545509       -0.8244786884        1.5235526290
 C         -3.3237672508       -1.4166830486       -0.4310619709
 C         -2.6335567512       -2.2625904189        0.4119795990
 C         -1.6163165613       -3.0431457391       -0.1121561910
 C         -1.3065615612       -2.9610258790       -1.4598611710
 C         -2.0070997809       -2.1038763887       -2.2927703209
 C         -3.0238923207       -1.3202953084       -1.7749253209
 H         -3.5974934004       -0.6486135382       -2.3936498008
 H         -1.7581477007       -2.0387460086       -3.3397692309
 H         -0.5122305913       -3.5680561692       -1.8644310510
 H         -1.0657261716       -3.7097271294        0.5325418989
 H         -2.9075401613       -2.3008845990        1.4536473090
 H         -3.9779579000        1.6543063816       -0.5000693005
 H         -3.1686595707        0.1168135909        2.6720963793
 H         -0.8896189308        0.2168609501        3.6534543596
 H          0.9299822497        1.3441706498        2.4269083899
 C          0.8599530602        2.5400428602        0.0505804601
 H          1.2680541304        3.3415014399        0.6827603703
 C          0.4999570405        3.1215629605       -1.3004869498
 C         -0.1076918191        4.4882601907       -1.3951470497
 C          1.3075686409        4.2645078803       -1.8343987096
 H          1.5309751210        4.2893003104       -2.8904875396
 H          2.1061184410        4.6406813600       -1.2115880494
 H         -0.2731113290        5.0266290806       -0.4741512296
 H         -0.8545278789        4.6723488610       -2.1529561397
 H          0.1791734404        2.3657742107       -2.0085669600
 O          0.5572390196       -0.0462783396       -1.1701805303
