  62
        -98.94012465
 C          2.5269869138        0.0927580186       -0.4741046002
 C          2.2059691360        0.7700252896        0.7253125811
 C          1.7357771332        2.1599574541        0.5886183369
 C          1.5834442631        2.6855002598       -0.6387172238
 C          1.1558363738        4.0780188235       -1.0360389667
 C          0.0542113772        4.7585114987       -0.2172969625
 C         -1.0659867490        3.8259143230        0.2657691402
 H         -2.0304022272        4.2479526722       -0.0242293590
 H         -0.9822614968        2.8471697813       -0.2122570285
 C         -1.0660827736        3.6336935832        1.7834707671
 H         -0.8812101960        4.5961044174        2.2668887253
 H         -2.0566846530        3.2922695339        2.0921078767
 C         -0.0561833172        2.6068567432        2.2904116782
 H         -0.3384141461        1.6156898474        1.9260241388
 H         -0.1104329455        2.5830184866        3.3818282754
 C          1.4022313446        2.8620139043        1.8741805023
 H          1.6166858657        3.9270047272        1.8174955485
 H          2.0517964224        2.4161751732        2.6326030852
 H          0.4965366100        5.2603345618        0.6421648604
 H         -0.3694338384        5.5380562786       -0.8533916123
 H          2.0464237469        4.7146555204       -1.0345361353
 H          0.8314790892        3.9853970811       -2.0759687830
 O          1.8698206299        1.9799708861       -1.7728992389
 C          2.3354491629        0.6793786089       -1.7218967399
 O          2.5478356849        0.1627031307       -2.8403954291
 H          0.4031562080       -1.2644394059       -1.0229941687
 C          0.5903584978       -1.9703726096       -0.2251666790
 C          1.8923740429       -2.1818515529        0.2102854979
 C          2.1123082576       -3.1144531183        1.2149319110
 C          1.0452402396       -3.7824519468        1.7919483226
 C         -0.2541185882       -3.5230465427        1.3974021922
 C         -0.4814761010       -2.6070565171        0.3756980949
 N         -1.7827196062       -2.3149506703       -0.0696565423
 S         -2.0804080876       -0.7275226141       -0.5741100949
 O         -1.7714733795       -0.6279699660       -1.9803941028
 O         -1.4202573857        0.2106608194        0.3011404549
 C         -3.8474359920       -0.6413585720       -0.3491583907
 C         -4.6635280056       -1.2806302159       -1.2636091613
 C         -6.0360600543       -1.2433678969       -1.0765676673
 C         -6.5666457753       -0.5711432086        0.0148402831
 C         -5.7352702466        0.0682826218        0.9218972230
 C         -4.3611375182        0.0328702278        0.7419855102
 H         -3.6738042046        0.5180474264        1.4165922896
 H         -6.1501954793        0.5933433724        1.7670533042
 H         -7.6352791461       -0.5430336858        0.1575348440
 H         -6.6856417495       -1.7366069566       -1.7814022887
 H         -4.2051966193       -1.7806195300       -2.1009387097
 H         -2.4986424944       -2.6482019710        0.5618029650
 H         -1.0855728908       -4.0211393667        1.8724224301
 H          1.2279617567       -4.4995652431        2.5778994641
 H          3.1158427277       -3.3060593637        1.5578305586
 C          2.9818906131       -1.3561862157       -0.4312947090
 H          3.0830023276       -1.6738938787       -1.4800835592
 C          4.3259902917       -1.4809108932        0.2535970224
 C          5.2556395739       -2.5991382830       -0.1078592488
 C          5.5681236896       -1.1971414076       -0.5344227551
 H          6.3790088350       -0.6759933536       -0.0483345851
 H          5.4437887766       -0.9366845457       -1.5757909110
 H          5.8579008415       -3.0414537441        0.6712037376
 H          4.9281175359       -3.2961812550       -0.8643752656
 H          4.2988025851       -1.1455138572        1.2837393393
 O          2.3293561106        0.2494949278        1.8650684722
