  62
        -98.94040978
 C          1.8056583604        0.9085725236       -0.7993268440
 C          2.0164313377        0.3411203986        0.4819210289
 C          3.4226676864        0.1776313079        0.8798328136
 C          4.4072434000        0.6087995758        0.0721636004
 C          5.8837298682        0.5295783880        0.3507785721
 C          6.5147229255       -0.8228077085       -0.0080460736
 C          6.1606165036       -1.9759216620        0.9319401576
 H          6.8360410076       -2.8004308039        0.6950282382
 H          6.3603257867       -1.6776758981        1.9616483079
 C          4.7133113010       -2.4725767376        0.8087145181
 H          4.2855395957       -2.1178906300       -0.1318283437
 H          4.7053361833       -3.5641625706        0.7714320864
 C          3.7984263574       -2.0515127684        1.9588646924
 H          4.1438946746       -2.5099617195        2.8880486146
 H          2.7929524463       -2.4265887953        1.7520087805
 C          3.7048319179       -0.5343453805        2.1683744782
 H          2.8732490854       -0.3311710405        2.8475697882
 H          4.6239750014       -0.1590413543        2.6177768711
 H          6.2264475232       -1.0829699955       -1.0292623724
 H          7.5990024373       -0.6900718466        0.0066898218
 H          6.3566561999        1.3028000629       -0.2586667560
 H          6.0712752788        0.7527618080        1.4014840153
 O          4.1603064379        1.2087471915       -1.1233919289
 C          2.8647615569        1.3613296325       -1.5901696309
 O          2.7863804154        1.9203328215       -2.7028376848
 H         -1.9894727669        0.1875180060       -0.3294342834
 C         -1.6778983249        1.1257071248        0.0968936725
 C         -0.4884704682        1.7147283294       -0.2984935647
 C         -0.1104928405        2.9165603288        0.2962777309
 C         -0.8950899957        3.5010155986        1.2700719124
 C         -2.0884857585        2.9139183291        1.6544521262
 C         -2.4791299857        1.7210812492        1.0615029337
 N         -3.6771489007        1.0897283251        1.4291886965
 S         -4.6460215919        0.4225604662        0.2406676734
 O         -4.5602886827        1.1671235233       -0.9947486134
 O         -5.9611617950        0.3433332348        0.8413967311
 C         -4.0273239816       -1.2296634205        0.0033823396
 C         -3.9566162177       -1.7396683098       -1.2779441597
 C         -3.5210433391       -3.0430623105       -1.4587405552
 C         -3.1662205891       -3.8099848928       -0.3593744360
 C         -3.2425904536       -3.2823137343        0.9206670854
 C         -3.6810481531       -1.9813472236        1.1084064704
 H         -3.7507925284       -1.5398399811        2.0883534618
 H         -2.9608229778       -3.8803572200        1.7722382227
 H         -2.8243126080       -4.8230432950       -0.5021946950
 H         -3.4583583513       -3.4534866720       -2.4542432358
 H         -4.2320038087       -1.1043233596       -2.1048009719
 H         -4.2206998282        1.5778499808        2.1259002132
 H         -2.7072852288        3.3724114599        2.4110762004
 H         -0.5820731340        4.4270301773        1.7290418858
 H          0.8183092328        3.3800228266       -0.0096455282
 C          0.4080937124        1.1182148616       -1.3554439985
 H          0.5280513236        1.8729555902       -2.1511192573
 C         -0.1861051731       -0.1177507096       -2.0153502297
 C          0.6931363133       -1.1552642886       -2.6455565478
 C         -0.0749295007       -1.4799263857       -1.4015083339
 H         -0.9214593998       -2.1464512118       -1.4783577342
 H          0.4609276240       -1.5617617303       -0.4697182241
 H          0.3761214966       -1.5952604944       -3.5790170193
 H          1.7621486803       -1.0171719839       -2.5699851013
 H         -1.1110307697        0.1092531995       -2.5381356355
 O          1.0953284370       -0.0126691917        1.2607336975
