  62
        -98.93870183
 C         -1.9420526467       -0.8446094325       -0.4157014465
 C         -3.0267796642       -1.1528970602        0.4397025666
 C         -4.3221904309       -0.5112187452        0.1449812512
 C         -4.4002734107        0.3344630921       -0.8993077014
 C         -5.5879847735        1.1324757403       -1.3679698936
 C         -5.8725106738        2.3522549892       -0.4773813498
 C         -5.8083195830        2.0805586174        1.0231840420
 H         -4.8178066502        1.6976820297        1.2757787270
 H         -5.9259875871        3.0374973752        1.5385736958
 C         -6.8745441524        1.1274491409        1.5581422308
 H         -7.8633335375        1.5297313550        1.3266994800
 H         -6.7720765642        1.1054474158        2.6461268472
 C         -6.8024816343       -0.3131062304        1.0465439468
 H         -7.2130844734       -0.3957569257        0.0437822657
 H         -7.4421441649       -0.9200381546        1.6939592606
 C         -5.4119337251       -0.9377371776        1.0989696448
 H         -4.9994641905       -0.8108464929        2.1063579132
 H         -5.5114757600       -2.0215636892        0.9641229105
 H         -5.1299330881        3.1200622898       -0.7085858565
 H         -6.8565991017        2.7463288056       -0.7369770235
 H         -5.3506708092        1.4852489326       -2.3741690651
 H         -6.4630210912        0.4933653788       -1.4395194572
 O         -3.3242836152        0.6139805907       -1.6883349579
 C         -2.0808231823        0.0459839803       -1.4792243251
 O         -1.2143157137        0.4053975396       -2.2999845873
 O         -2.9230793899       -1.9381183768        1.4200825366
 C         -0.5982839017       -1.4920082052       -0.1252749647
 C          0.3483476880       -0.4374964300        0.3908993079
 C          0.3343754662       -0.1059690954        1.7425622811
 C          1.1752727287        0.8723880965        2.2401877878
 C          2.0466255512        1.5425174297        1.3993561521
 C          2.0606283880        1.2245358203        0.0480948125
 C          1.2249480192        0.2334845344       -0.4481158417
 H          1.2355002162        0.0076766181       -1.5026042934
 N          2.9563757549        1.8959550593       -0.8087569381
 S          4.5756694294        1.7846907899       -0.3916458331
 O          4.8629865136        2.7205176631        0.6663975117
 O          5.3106513037        1.9738253966       -1.6222154591
 C          4.7583082449        0.1140385775        0.2066454440
 C          4.8929259726       -0.1218038867        1.5594054324
 C          4.9494079048       -1.4317865287        2.0078959680
 C          4.8660977693       -2.4766415200        1.1010932242
 C          4.7344345603       -2.2230031922       -0.2557008259
 C          4.6755236998       -0.9158259612       -0.7095217008
 H          4.5782204853       -0.6803453046       -1.7573013419
 H          4.6719398657       -3.0384590372       -0.9582213579
 H          4.9044098989       -3.4958210007        1.4521992681
 H          5.0527940829       -1.6325259640        3.0620408701
 H          4.9539756587        0.7192909988        2.2300820564
 H          2.8229900437        1.6609353041       -1.7818813914
 H          2.7129774358        2.3069384924        1.7654525533
 H          1.1537811639        1.1162059164        3.2914167332
 H         -0.3525722095       -0.6227115228        2.3979394742
 H         -0.7919599489       -2.2005158300        0.6911111174
 C         -0.0550594142       -2.2544307252       -1.3165166015
 C          1.1308370052       -3.1516599515       -1.1278007414
 C         -0.2238642162       -3.7415947446       -1.3768752496
 H         -0.4208299366       -4.1982458379       -2.3353418364
 H         -0.7331430263       -4.2203837765       -0.5535600731
 H          1.8655925709       -3.2042632797       -1.9163343065
 H          1.5447657171       -3.2246555009       -0.1336277056
 H         -0.1351394857       -1.7100212910       -2.2494465709
