  62
        -98.94762367
 C         -1.8332898583       -1.3360005023       -0.0947509312
 C         -2.9323970394       -0.6110497436        0.4287891482
 C         -3.2521676307        0.6534388659       -0.2401502021
 C         -2.5105551607        1.0601224567       -1.2859857119
 C         -2.6952050920        2.3356291563       -2.0611288421
 C         -2.0038347338        3.5410685273       -1.4091435421
 C         -2.7011855949        4.0894485866       -0.1635265424
 H         -2.2558175862        5.0633158672        0.0497993876
 H         -3.7584904050        4.2523229353       -0.3779154129
 C         -2.5541702943        3.2021188270        1.0806799878
 H         -1.7184101434        2.5116654280        0.9372052382
 H         -2.2984290854        3.8248443974        1.9419332778
 C         -3.8107274135        2.4133004155        1.4525099674
 H         -4.6039568544        3.1067564946        1.7424141170
 H         -3.5760888930        1.7889421359        2.3187391476
 C         -4.3440969919        1.4997597047        0.3411622174
 H         -5.0891783213        0.8299516938        0.7782577772
 H         -4.8209053323        2.0943095840       -0.4378547029
 H         -1.9550263744        4.3374181572       -2.1558163022
 H         -0.9800646335        3.2573942886       -1.1500974316
 H         -3.7578923322        2.5443710050       -2.1881872226
 H         -2.2500212414        2.1720360567       -3.0449070719
 O         -1.4798312397        0.3273680979       -1.7759389514
 C         -1.0769633884       -0.8475708715       -1.1608103810
 O         -0.0584167376       -1.3549615104       -1.6693853105
 O         -3.6060443393       -0.9987143443        1.4221944380
 C         -1.3807870970       -2.5776349116        0.6551462991
 C          0.0976216727       -2.4620057398        0.9337180897
 C          1.0297844741       -3.4533592387        0.6591392002
 C          2.3755398737       -3.2392823570        0.9082021607
 C          2.8224191020       -2.0281655463        1.4031810307
 C          1.8952151807       -1.0307354674        1.6827568002
 C          0.5472068610       -1.2667136691        1.4830785397
 H         -0.1591376100       -0.4804125400        1.7091844793
 N          2.2852778389        0.2478074131        2.1406310301
 S          2.0549579878        1.5025792027        1.0472297898
 O          2.5229436461        2.6913077033        1.7286024598
 O          0.6874109880        1.5215594809        0.5998488193
 C          3.1758351488        1.1115018838       -0.2844543297
 C          4.4295979681        1.6937197854       -0.2763508593
 C          5.3441300489        1.3343888263       -1.2524008889
 C          4.9944655704        0.3931762158       -2.2094746489
 C          3.7342919811       -0.1838641858       -2.2003338693
 C          2.8105447503        0.1733630632       -1.2288038597
 H          1.8231616208       -0.2626814880       -1.2089518300
 H          3.4547607223       -0.9166082463       -2.9403028893
 H          5.7068096011        0.1075770765       -2.9674343685
 H          6.3237735184        1.7844670275       -1.2618024486
 H          4.6538234869        2.4213545058        0.4870809807
 H          3.2386033288        0.2839366543        2.4768691805
 H          3.8751079617       -1.8494334050        1.5641280211
 H          3.0885209247       -4.0190745061        0.6881808211
 H          0.7081959254       -4.3871888391        0.2282037502
 H         -1.9125937875       -2.5175146021        1.6204700389
 C         -1.7870413252       -3.8988532922        0.0213102292
 C         -2.9437686047       -3.9753189638       -0.9287772312
 C         -1.5492349742       -4.1984315422       -1.4273884907
 H         -1.2603712629       -5.2026520819       -1.7013404104
 H         -1.0860375749       -3.4289443017       -2.0239384706
 H         -3.6102033537       -4.8219523246       -0.8579176214
 H         -3.4379933557       -3.0503991545       -1.1893979816
 H         -1.6838735744       -4.7292549220        0.7130437394
