  62
        -98.94793789
 C         -1.2451407918       -0.8227738788        0.4301936066
 C         -2.0668916850       -0.6133665324       -0.7030563775
 C         -2.9812337498        0.5325693172       -0.6215230170
 C         -2.9488923309        1.3418016855        0.4526280011
 C         -3.7926435159        2.5698793644        0.6629575050
 C         -5.1897519220        2.2809459373        1.2291600078
 C         -6.1699557408        1.6405280235        0.2455270216
 H         -7.1610124133        1.6951717188        0.7002568751
 H         -6.1990284534        2.2306580418       -0.6709619344
 C         -5.8614481881        0.1752516969       -0.0922463547
 H         -6.7811543646       -0.4116146801       -0.0402073702
 H         -5.1769213156       -0.2338733302        0.6542268840
 C         -5.2631795066       -0.0422882588       -1.4821170849
 H         -5.0509940661       -1.1077288739       -1.6010013348
 H         -5.9916910391        0.2434987548       -2.2440406920
 C         -3.9619972047        0.7298901626       -1.7377025623
 H         -3.5042795972        0.3424692637       -2.6514696345
 H         -4.1729957329        1.7903044900       -1.8765894732
 H         -5.6095454326        3.2337734340        1.5598893999
 H         -5.0842767943        1.6411243333        2.1083297299
 H         -3.2525476745        3.1978132652        1.3753124851
 H         -3.8831178718        3.1158707197       -0.2767822258
 O         -2.0995749276        1.1413991058        1.4952864635
 C         -1.2341830295        0.0599262712        1.5094922412
 O         -0.5085955574       -0.0040858616        2.5242427008
 H          0.8274039267        0.3078890659       -0.3559689537
 C          1.2534736600       -0.5332469796       -0.8801008304
 C          0.7789555472       -1.8116249155       -0.6227991666
 C          1.3201705171       -2.8737662949       -1.3365972467
 C          2.3011294152       -2.6479570805       -2.2870715902
 C          2.7799110071       -1.3730322604       -2.5296182848
 C          2.2472515716       -0.3045075858       -1.8172087121
 N          2.6966420119        1.0078316412       -2.0254865009
 S          2.7709839892        2.0783419158       -0.7436154126
 O          1.4488506129        2.5152258540       -0.3693971242
 O          3.6689191487        3.1158769277       -1.2057134098
 C          3.5498554630        1.1586913428        0.5719671026
 C          2.8264848601        0.7126327813        1.6585292931
 C          3.4714992236       -0.0447193025        2.6248532497
 C          4.8185140555       -0.3403442598        2.4916782473
 C          5.5345647869        0.1237770206        1.3980653819
 C          4.8956881280        0.8768055873        0.4277883943
 H          5.4189230508        1.2666948073       -0.4302065631
 H          6.5842220005       -0.1009921580        1.2993131816
 H          5.3120420511       -0.9323888069        3.2461388178
 H          2.9045781528       -0.3991719358        3.4711752555
 H          1.7772776144        0.9485003383        1.7483935805
 H          3.4916032995        1.0972347670       -2.6406021720
 H          3.5482667852       -1.2016113120       -3.2675333902
 H          2.7060027670       -3.4800729550       -2.8425965664
 H          0.9687730844       -3.8761204023       -1.1545635181
 C         -0.2651843837       -1.9804912016        0.4561321450
 H          0.2522393251       -1.9164498586        1.4257828079
 C         -0.9987037354       -3.3039355703        0.3821238014
 C         -0.4520822777       -4.5130674999        1.0782291905
 C         -1.6703994176       -3.8262210245        1.6155942230
 H         -2.6284881011       -4.3135849568        1.5146141990
 H         -1.5729511526       -3.2399208965        2.5181827248
 H         -0.5762573123       -5.4777311947        0.6096543501
 H          0.4719730703       -4.4015178939        1.6250917233
 H         -1.5109761537       -3.4418125604       -0.5627982196
 O         -2.0387240459       -1.3390602731       -1.7311958949
