  62
        -98.94415478
 C         -2.1910452112       -0.7641085245       -0.0476486259
 C         -2.9050232411       -0.0974064214        0.9757109484
 C         -3.7088902246        1.0534674321        0.5491637909
 C         -3.6949240566        1.4350512252       -0.7412809489
 C         -4.4430383136        2.6019425098       -1.3268780005
 C         -5.9014206602        2.2889545176       -1.6889890878
 C         -6.8492170474        2.1356638296       -0.4987439004
 H         -6.7545885434        3.0040229436        0.1540582640
 H         -7.8657789658        2.1369602090       -0.8969350496
 C         -6.6409545298        0.8514780159        0.3161453640
 H         -7.6087027173        0.3865556157        0.5171354458
 H         -6.0587365494        0.1373878482       -0.2708082765
 C         -5.9515642367        1.0608116570        1.6644551815
 H         -5.8225458477        0.0845167212        2.1387851083
 H         -6.5881466734        1.6677421622        2.3120979900
 C         -4.5729120014        1.7278749218        1.5717056909
 H         -4.0782663439        1.6307860188        2.5415837757
 H         -4.6821638228        2.7872999603        1.3402149485
 H         -5.9235000911        1.3784783740       -2.2921551186
 H         -6.2650660193        3.1094097109       -2.3118755460
 H         -4.4113717613        3.4436617990       -0.6343600302
 H         -3.9141458980        2.8824952232       -2.2402599614
 O         -2.9576395445        0.7946683335       -1.6871886578
 C         -2.2041307711       -0.3279904963       -1.3728338840
 O         -1.5998591193       -0.8274722617       -2.3395513958
 O         -2.8650303236       -0.4420453188        2.1885902095
 C         -1.3621857064       -1.9838378009        0.3071021655
 C          0.0915133654       -1.7627084275       -0.0335430337
 C          0.8898285597       -2.7335343048       -0.6239306847
 C          2.2240197060       -2.4779967016       -0.8906654998
 C          2.7909937348       -1.2572826823       -0.5759437646
 C          2.0054611489       -0.2825632623        0.0257197746
 C          0.6719440687       -0.5442947618        0.2979381981
 H          0.0633944797        0.2168543658        0.7722915328
 N          2.5716208048        0.9668433552        0.3415832190
 S          3.9550388191        0.9730594878        1.2963369622
 O          3.9922386489       -0.1711204536        2.1779008566
 O          3.9716559049        2.2734715622        1.9303622153
 C          5.2897931800        0.8827066458        0.1220500956
 C          6.2238437064       -0.1301079634        0.2183741575
 C          7.2603765365       -0.1747822423       -0.7010889060
 C          7.3439361219        0.7890230844       -1.6942567904
 C          6.3989133194        1.8011516809       -1.7754707826
 C          5.3610666115        1.8525116318       -0.8587483424
 H          4.6084836998        2.6229533228       -0.8848514171
 H          6.4670404175        2.5488599090       -2.5492049879
 H          8.1501755169        0.7515896966       -2.4096937651
 H          7.9961482614       -0.9604212926       -0.6395289893
 H          6.1141487726       -0.8606061480        1.0038740144
 H          1.9008501920        1.6327357632        0.6974910527
 H          3.8268808975       -1.0518047910       -0.7907050226
 H          2.8300252486       -3.2405081640       -1.3554666012
 H          0.4666339138       -3.6911027485       -0.8788968672
 H         -1.4399276498       -2.0813064947        1.4011415130
 C         -1.9526675442       -3.2231404134       -0.3334674203
 C         -1.8274947868       -4.5574572457        0.3373747147
 C         -3.1525986504       -3.8592256780        0.2997689895
 H         -3.9276985952       -4.2519307215       -0.3410772311
 H         -3.5245086780       -3.4152941426        1.2119496112
 H         -1.6951110088       -5.4340451414       -0.2786668883
 H         -1.3026659578       -4.5961706436        1.2800656708
 H         -1.9187258026       -3.1859535601       -1.4165635904
