  62
        -98.93997518
 C         -1.9699957309       -0.8387043901       -0.2072942799
 C         -2.8061152110       -0.4555520198        0.8734536499
 C         -3.3046500007        0.9242054303        0.8652554896
 C         -2.9222261004        1.7494696301       -0.1257465005
 C         -3.3848303801        3.1683508802       -0.2872699608
 C         -4.6440250199        3.2472091703       -1.1619417610
 C         -5.7442789602        2.2692030406       -0.7495321811
 H         -6.5926165800        2.4343180206       -1.4172126913
 H         -5.3941948403        1.2486251605       -0.9204983409
 C         -6.2049540304        2.4093722309        0.7080578388
 H         -7.2962027304        2.3796011611        0.7343344786
 H         -5.8971336603        3.3785679109        1.1018273587
 C         -5.7068330408        1.3030145909        1.6398113690
 H         -6.2610264510        1.3746844312        2.5793439889
 H         -5.9299393509        0.3270637809        1.2016456592
 C         -4.2131042709        1.3439833507        1.9868662893
 H         -3.9452596907        2.3396359407        2.3463868092
 H         -4.0390748412        0.6277364408        2.7951331995
 H         -4.3610963697        3.0292873701       -2.1944421110
 H         -5.0278274597        4.2682780304       -1.1226567813
 H         -3.5842517402        3.5921652904        0.6951872591
 H         -2.5835617298        3.7369633399       -0.7626226507
 O         -2.1004745203        1.3605243598       -1.1318682502
 C         -1.6045670805        0.0638489097       -1.2079186599
 O         -0.8814093704       -0.1277815706       -2.2052929598
 H          0.6702306192       -0.5662068807       -0.2124870694
 C          0.8435574989       -1.4379298306        0.3998345008
 C         -0.1441065714       -2.4026296704        0.5324119707
 C          0.1127292983       -3.5188854103        1.3210402410
 C          1.3333623381       -3.6684788304        1.9532233312
 C          2.3179087483       -2.7079954807        1.8141366613
 C          2.0666871887       -1.5797263607        1.0396869510
 N          3.0339907489       -0.5683214310        0.9396699811
 S          3.0536472194        0.4806628888       -0.3796000191
 O          2.0275382796        1.4761349791       -0.1949292294
 O          3.0380765395       -0.2678181814       -1.6157992690
 C          4.6598816795        1.2201280785       -0.1424567189
 C          4.7884881696        2.2675229287        0.7499485910
 C          6.0425799396        2.8184240584        0.9611154111
 C          7.1419415997        2.3150646181        0.2814725214
 C          6.9976021996        1.2653029480       -0.6130696684
 C          5.7461074795        0.7096244582       -0.8280627886
 H          5.5832266495       -0.1006610719       -1.5204092985
 H          7.8529110996        0.8782742677       -1.1429991582
 H          8.1166447497        2.7457325179        0.4477727016
 H          6.1574441397        3.6369031485        1.6532805710
 H          3.9040149895        2.6297248289        1.2477747007
 H          3.9625731288       -0.8781050511        1.1909597613
 H          3.2704455382       -2.8199476208        2.3087108015
 H          1.5211029578       -4.5409639104        2.5600789014
 H         -0.6556525219       -4.2671926001        1.4429779209
 C         -1.4685233212       -2.2697896102       -0.1854379196
 H         -2.2144536114       -2.8291634100        0.3978427204
 C         -1.3584676110       -2.9079591404       -1.5573229194
 C         -1.5649303713       -4.3841251504       -1.7084588592
 C         -2.5927698410       -3.4262555303       -2.2298702796
 H         -2.6899605708       -3.2920928505       -3.2965073696
 H         -3.5256381511       -3.3371462500       -1.6921101898
 H         -1.8109502416       -4.9527412102       -0.8249141092
 H         -0.9507273713       -4.9161218207       -2.4184405590
 H         -0.6120935408       -2.4359918207       -2.1843888494
 O         -3.1288847214       -1.2449328996        1.8029239700
