  62
        -98.93616810
 C          1.4448910698        1.3232075905        0.3873964999
 C          1.9584713900        0.3768868503        1.3079692096
 C          3.3081769702       -0.1304452891        1.0325163996
 C          3.9694360602        0.3201120015       -0.0492518701
 C          5.3320863304       -0.1423410678       -0.4759531901
 C          5.2384193309       -1.3225622075       -1.4526467506
 C          4.3135194113       -2.4443755580       -0.9796027812
 H          3.2842911111       -2.0771099384       -0.9569931811
 H          4.3518880916       -3.2368085177       -1.7304443215
 C          4.6724714413       -3.0262041684        0.3948930887
 H          4.6183520217       -4.1154484084        0.3381656482
 H          5.6999547412       -2.7650347982        0.6513758789
 C          3.7415856810       -2.5944174392        1.5298062187
 H          2.7019205811       -2.7665116094        1.2367051085
 H          3.9446849411       -3.2305289494        2.3957689685
 C          3.8809627304       -1.1373681293        1.9896634393
 H          3.3125497603       -1.0270657598        2.9178490993
 H          4.9296572803       -0.9174250190        2.2005548795
 H          4.8635331809       -0.9519134273       -2.4093965705
 H          6.2424498211       -1.7203282871       -1.6112765206
 H          5.8367027102        0.6884248725       -0.9720144398
 H          5.9043180404       -0.4297211980        0.4039469098
 O          3.4458019800        1.2267201517       -0.9108072399
 C          2.1666985998        1.7414027412       -0.7311330498
 O          1.8150663896        2.5388308814       -1.6170878996
 O          1.3160692200       -0.0203448803        2.3185776994
 C          0.0359316996        1.8505587199        0.6270638300
 C         -0.8034309202        1.5478931701       -0.5889979403
 C         -1.2314671503        2.4376747503       -1.5660928400
 C         -1.9879513901        1.9940255705       -2.6384949902
 C         -2.3541630696        0.6671279404       -2.7598076808
 C         -1.9150918194       -0.2394628898       -1.8018304211
 C         -1.1405898397        0.2052685800       -0.7440465708
 H         -0.7726701995       -0.5175924001       -0.0308243810
 N         -2.2584058989       -1.5983008699       -1.8747483716
 S         -2.5711402188       -2.4281677706       -0.4559447720
 O         -1.3367040287       -2.8291240504        0.1708768680
 O         -3.4498089384       -3.5062934407       -0.8585419325
 C         -3.4585474693       -1.2678433713        0.5694822783
 C         -2.9012461796       -0.8008167015        1.7420830486
 C         -3.5949736800        0.1432190380        2.4830597989
 C         -4.8271076202        0.5997010077        2.0422955389
 C         -5.3798658198        0.1110681180        0.8681823486
 C         -4.6899217094       -0.8297785815        0.1220220984
 H         -5.0910869592       -1.2373411913       -0.7916104118
 H         -6.3411317799        0.4637028978        0.5310073187
 H         -5.3589735205        1.3396031773        2.6191465591
 H         -3.1627886103        0.5219331978        3.3955765791
 H         -1.9366292895       -1.1714817213        2.0534789586
 H         -2.9168643988       -1.8320529899       -2.6030435818
 H         -2.9549903694        0.3307615705       -3.5906641510
 H         -2.3032630002        2.7020299507       -3.3898738700
 H         -0.9564767807        3.4754222204       -1.5262031895
 H         -0.3529729203        1.2027847595        1.4301173397
 C          0.0797929790        3.2436606697        1.2361795305
 C          0.3631806787        4.5166059701        0.5004175410
 C         -0.9976193713        4.2741808594        1.0840790508
 H         -1.2787163816        4.8418747790        1.9586557410
 H         -1.8191270011        4.0576085794        0.4209759206
 H          1.0043302284        5.2381127001        0.9872483314
 H          0.5180472288        4.4673134405       -0.5646644290
 H          0.5318798889        3.1776383395        2.2236622205
