  62
        -98.94967511
 C         -0.9275222841       -1.7541899828       -0.1498940124
 C         -2.0825352887       -1.5294935073        0.6340065350
 C         -3.0171923869       -0.5160619801        0.1272636571
 C         -2.7350417118        0.1213648206       -1.0235247628
 C         -3.6010823469        1.1745478345       -1.6528763421
 C         -3.2196126401        2.5897655005       -1.1971840098
 C         -3.0604626152        2.7384430563        0.3163176554
 H         -2.1995796011        2.1579783833        0.6601926933
 H         -2.8261372806        3.7870785361        0.5163885253
 C         -4.2983389565        2.3306019595        1.1271378449
 H         -4.4673027820        3.0806402361        1.9027609110
 H         -5.1789967663        2.3241631199        0.4831647424
 C         -4.1762778897        0.9800831055        1.8354117591
 H         -4.9854050186        0.9052800706        2.5672191978
 H         -3.2320623656        0.9442105050        2.3862887701
 C         -4.2589520778       -0.2572106846        0.9321616982
 H         -4.3846772313       -1.1321691073        1.5770032785
 H         -5.1342190917       -0.1807138722        0.2832285543
 H         -2.2755812407        2.8706987936       -1.6695060066
 H         -3.9891292866        3.2806081229       -1.5476508844
 H         -3.4843835344        1.1088292167       -2.7361086802
 H         -4.6402111182        0.9727993131       -1.3989107084
 O         -1.6091214528       -0.1137487565       -1.7445060956
 C         -0.6651730242       -1.0380129807       -1.3169918531
 O          0.3345140230       -1.1322294743       -2.0522044542
 H          0.5705893276       -0.3895313181        1.3893624069
 C          1.4869410486       -0.8967775517        1.1250590252
 C          1.4352467424       -2.1527300541        0.5345678332
 C          2.6319461072       -2.7848856568        0.2186915796
 C          3.8423229418       -2.1669780516        0.4801393833
 C          3.8875431117       -0.9091876027        1.0528224901
 C          2.6964898584       -0.2709743630        1.3779649208
 N          2.6938567680        1.0050385307        1.9711265348
 S          1.6689157759        2.1680959120        1.3483295862
 O          2.2094772589        3.4194888001        1.8391478210
 O          0.3040418943        1.8900605508        1.7182660941
 C          1.8633506323        2.0895895332       -0.4219042241
 C          3.1354141280        2.1254938500       -0.9586925128
 C          3.2817854469        2.0672591953       -2.3343513538
 C          2.1613706843        1.9796411138       -3.1465246176
 C          0.8919319397        1.9556818915       -2.5934188096
 C          0.7419396591        2.0100394617       -1.2176639545
 H         -0.2257753816        1.9778779729       -0.7438725255
 H          0.0189176430        1.8742534315       -3.2208945833
 H          2.2768779844        1.9264380647       -4.2175652084
 H          4.2680030666        2.0859912463       -2.7697079927
 H          3.9888335970        2.2040927652       -0.3050305970
 H          3.6123218369        1.3897991553        2.1398449153
 H          4.8319097469       -0.4265558951        1.2532287638
 H          4.7634879250       -2.6695339578        0.2279559089
 H          2.6163288856       -3.7632406200       -0.2327204951
 C          0.0851675412       -2.7865840696        0.3054493526
 H         -0.2854787297       -3.1507865209        1.2762722755
 C          0.1240422685       -3.9491360707       -0.6660958237
 C          0.4032548479       -5.3389466808       -0.1792568755
 C         -0.9782640989       -4.9632760407       -0.6208199770
 H         -1.3519744259       -5.3618425957       -1.5519690539
 H         -1.7402795139       -4.8311781999        0.1336660323
 H          0.9776541129       -6.0008198528       -0.8098181848
 H          0.5753529473       -5.4744332704        0.8778965845
 H          0.4984603664       -3.6607739988       -1.6418402409
 O         -2.3263011814       -2.1559319263        1.7020732317
