  62
        -98.94570193
 C         -2.5624396262       -0.1303563861        0.0727082022
 C         -2.4387747884       -1.1954489663       -0.8489596470
 C         -1.9131029106       -2.4530547854       -0.3090013494
 C         -1.5843270890       -2.5325435601        0.9934502663
 C         -1.0182521696       -3.7393347300        1.6912046673
 C          0.5010520346       -3.8824612108        1.5245689038
 C          0.9582200223       -4.3735679863        0.1501683882
 H          2.0036016245       -4.6728150806        0.2479126967
 H          0.3879082215       -5.2602172810       -0.1302658457
 C          0.8547932415       -3.3179996848       -0.9593176720
 H          0.7857752824       -2.3229728324       -0.5125460700
 H          1.7701549820       -3.3230549652       -1.5570434392
 C         -0.3121109080       -3.5152061990       -1.9273582888
 H         -0.3160210538       -2.6715172426       -2.6230670770
 H         -0.1577231961       -4.4297052612       -2.5057000258
 C         -1.6914840122       -3.5901704133       -1.2607491101
 H         -1.8077151775       -4.5436506593       -0.7455112292
 H         -2.4515410245       -3.5184749367       -2.0433130240
 H          0.9657717579       -2.9150311341        1.7318371333
 H          0.8480990382       -4.5936561595        2.2779491619
 H         -1.2398623450       -3.6156959306        2.7533564921
 H         -1.5149403986       -4.6418645852        1.3332784039
 O         -1.7512292690       -1.4963107378        1.8564247056
 C         -2.2028222848       -0.2632316193        1.4143424697
 O         -2.2584377088        0.6119391517        2.3003064012
 O         -2.7521171012       -1.0975423089       -2.0683696707
 C         -2.9909738635        1.2347362231       -0.4296285785
 C         -1.8880125656        2.2416818481       -0.1998859802
 C         -2.1281396624        3.5825713617        0.0712383838
 C         -1.0716293499        4.4574673592        0.2634079590
 C          0.2374030405        4.0171698566        0.2104907424
 C          0.4882883713        2.6740344074       -0.0549000041
 C         -0.5696461086        1.8134332866       -0.2881541772
 H         -0.3611177683        0.7802053806       -0.5244327996
 N          1.8025239785        2.1780559793       -0.0429004290
 S          2.1373305606        0.5640420157       -0.3496080546
 O          1.8351293836        0.2215067059       -1.7234099838
 O          1.5160076202       -0.2398136941        0.6723267502
 C          3.9035024930        0.5828668907       -0.1116970321
 C          4.3917687280        0.6009539064        1.1810889511
 C          5.7624225668        0.6451424195        1.3797335321
 C          6.6178523809        0.6709046826        0.2879409424
 C          6.1137223925        0.6493843622       -1.0035722128
 C          4.7433682238        0.6059376942       -1.2085850026
 H          4.3048757121        0.5795533567       -2.1931714027
 H          6.7809670085        0.6659150464       -1.8501734826
 H          7.6842786819        0.7050167015        0.4453630124
 H          6.1574915101        0.6588987019        2.3827142685
 H          3.6873684231        0.5712049200        1.9964880858
 H          2.5033901786        2.8148989695       -0.3904804536
 H          1.0582520463        4.6958267218        0.3812581039
 H         -1.2730455280        5.4979392716        0.4686579308
 H         -3.1424556784        3.9418956112        0.1344895749
 H         -3.1282280481        1.1177148827       -1.5163130769
 C         -4.3114275839        1.6510249313        0.1860194651
 C         -5.2926957090        2.4701449550       -0.5968846342
 C         -5.5739468564        1.0243864325       -0.3229843457
 H         -6.3464105237        0.7706292973        0.3871468688
 H         -5.4806309190        0.3201885225       -1.1370398739
 H         -5.8777796850        3.2113633363       -0.0736482058
 H         -5.0219255539        2.7483166573       -1.6043595479
 H         -4.2320392457        1.8233502900        1.2534867244
