  62
        -98.94842166
 C          0.7783933631        1.2299722434        0.0794665930
 C          1.5159062667        0.6536512532        1.1400146595
 C          2.3993995582       -0.4609729094        0.7741510880
 C          2.4416682238       -0.8739148500       -0.5060738340
 C          3.3990529071       -1.8985680444       -1.0414070814
 C          4.6993157170       -1.2365537277       -1.5214925068
 C          5.3205536017       -0.2757292465       -0.5078212152
 H          6.2470669216        0.1033715224       -0.9444426519
 H          4.6559188276        0.5804991681       -0.3719187146
 C          5.6206961732       -0.9034857410        0.8604749162
 H          5.6310270622       -1.9907648403        0.7763114629
 H          6.6185771018       -0.5937721957        1.1781218616
 C          4.6526954398       -0.4912140054        1.9709108359
 H          4.5758282209        0.5985580823        2.0052459834
 H          5.0692102426       -0.8194378702        2.9271136673
 C          3.2353221705       -1.0685509066        1.8651137259
 H          3.2872230129       -2.1534505511        1.7531593313
 H          2.7151667669       -0.8456687212        2.8017668651
 H          5.4164288016       -2.0227797575       -1.7643249140
 H          4.4852842423       -0.6769412736       -2.4347364319
 H          3.6194371594       -2.6281498753       -0.2647616157
 H          2.9316683695       -2.4031457988       -1.8871109250
 O          1.6568509607       -0.3487905630       -1.4797840478
 C          0.8040035586        0.7119257626       -1.2153507468
 O          0.1412492696        1.0957215655       -2.1962339651
 H         -1.5570693934        0.3825244029        1.0963173536
 C         -2.1182583852        1.0514043890        0.4591047846
 C         -1.5104971194        2.2028417180       -0.0269456611
 C         -2.2556955167        3.0651887739       -0.8204463056
 C         -3.5708936123        2.7679487917       -1.1323012820
 C         -4.1673502752        1.6130247586       -0.6627953839
 C         -3.4330784568        0.7500384025        0.1445276608
 N         -4.0186798910       -0.4180409082        0.6497000216
 S         -3.1177228456       -1.7304808489        1.1186196838
 O         -4.0759835574       -2.8162901953        1.1591216780
 O         -2.4387865440       -1.4596230788        2.3619133068
 C         -1.9262133502       -2.0740578448       -0.1648149163
 C         -0.7663714354       -2.7225883144        0.2082875052
 C          0.1323386169       -3.1130011729       -0.7700114512
 C         -0.1351046807       -2.8336907301       -2.1008670153
 C         -1.2949808976       -2.1667871522       -2.4591230544
 C         -2.2074682571       -1.7921610925       -1.4860320849
 H         -3.1175266666       -1.2787693372       -1.7502030292
 H         -1.4916783001       -1.9342576603       -3.4931217396
 H          0.5656903604       -3.1319697941       -2.8645995158
 H          1.0352801643       -3.6304344747       -0.4887290042
 H         -0.5885482147       -2.9035202595        1.2568130444
 H         -4.9145818979       -0.6714488347        0.2620872332
 H         -5.1909304560        1.3781858345       -0.9110767951
 H         -4.1376193650        3.4427067151       -1.7555264078
 H         -1.8065125982        3.9672919952       -1.2010221073
 C         -0.0746387839        2.4545295307        0.3546599506
 H         -0.0339112145        2.6007428599        1.4447477329
 C          0.5330538031        3.6660613724       -0.3228755971
 C          0.3334137487        5.0353910138        0.2524882017
 C          1.6737307592        4.3718550068        0.3446483370
 H          2.4799020875        4.7456877814       -0.2687246317
 H          1.9952027213        3.9948356191        1.3048255256
 H          0.2220170011        5.8690809935       -0.4242226306
 H         -0.2537847502        5.1171258976        1.1546305283
 H          0.5734931269        3.5624911615       -1.4016159709
 O          1.4539998525        1.0646786399        2.3312419974
