  62
        -98.93498107
 C          1.7701073694       -0.1427075126       -1.1094215607
 C          2.1976016105       -0.1374980839        0.2377119137
 C          3.6563087849       -0.1140676203        0.4644920313
 C          4.4838513897       -0.1308425869       -0.5959437413
 C          5.9915173524       -0.1059247611       -0.6196003321
 C          6.7133222369       -1.0121642217        0.3894668804
 C          7.4114495679       -0.2391958226        1.5097401808
 H          8.2197543500       -0.8560527966        1.9088380811
 H          7.8668544913        0.6565343392        1.0821440821
 C          6.5143061480        0.1598968510        2.6801696421
 H          7.0937802697        0.8196395118        3.3303550119
 H          6.2625556901       -0.7295502446        3.2617811928
 C          5.2136436093        0.8684732006        2.2962328731
 H          5.3899285794        1.5812713785        1.4913925497
 H          4.8788455014        1.4435046667        3.1622104151
 C          4.0803204670       -0.0929267981        1.9077040482
 H          4.3330879397       -1.1112534940        2.2165901862
 H          3.1705033755        0.1704696321        2.4562211680
 H          6.0132045232       -1.7344088675        0.8061313494
 H          7.4732623794       -1.5757325753       -0.1542694417
 H          6.2626797770       -0.3945676511       -1.6376989798
 H          6.3223653549        0.9279104668       -0.4919797406
 O          4.0224789470       -0.1473392764       -1.8804965513
 C          2.6713304350       -0.1440755561       -2.1716716814
 O          2.4038974450       -0.1411696634       -3.3909146886
 H         -2.1965517511       -0.0185498139       -0.2604769669
 C         -1.6792623099        0.9263928706       -0.2575294924
 C         -0.4094595990        1.0298391544       -0.8046717587
 C          0.2175293529        2.2730810755       -0.7992468846
 C         -0.3985393241        3.3736611090       -0.2369513216
 C         -1.6651346647        3.2654658164        0.3096230889
 C         -2.3094898722        2.0354503923        0.2910982419
 N         -3.5922416628        1.8903011611        0.8395573659
 S         -4.7310977809        0.9459960044        0.0591912151
 O         -4.5605492428        0.9784907998       -1.3745808839
 O         -6.0039593196        1.4252073523        0.5560804899
 C         -4.4664323995       -0.7032500624        0.6748160280
 C         -4.6843646191       -1.7714947727       -0.1724709599
 C         -4.5318772543       -3.0594266433        0.3173934325
 C         -4.1651950769       -3.2552136258        1.6397969991
 C         -3.9510697859       -2.1713826870        2.4779211964
 C         -4.1070505978       -0.8815489957        1.9960305909
 H         -3.9450514904       -0.0184209628        2.6197019515
 H         -3.6623373012       -2.3273858255        3.5049190732
 H         -4.0439012705       -4.2579071412        2.0184195334
 H         -4.6978731267       -3.9029910902       -0.3339441944
 H         -4.9555865102       -1.5738541346       -1.1973246376
 H         -3.9984404308        2.7399835090        1.2033976437
 H         -2.1499715751        4.1254607179        0.7463286761
 H          0.1076274405        4.3274381292       -0.2307216920
 H          1.2029038957        2.3636817777       -1.2362800238
 C          0.2885023912       -0.1522480028       -1.4331037091
 H          0.2143242178       -0.0439618728       -2.5259405099
 C         -0.3142901605       -1.4845920281       -1.0350078123
 C         -1.4532914310       -2.0691883554       -1.8131313629
 C         -0.0852482202       -2.6709460123       -1.9208673435
 H          0.0937837632       -3.6313999877       -1.4618203911
 H          0.4788537092       -2.5079323206       -2.8279932789
 H         -1.8302155182       -1.5032498553       -2.6521621254
 H         -2.2120607604       -2.6183322598       -1.2762413230
 H         -0.2895872076       -1.6457541146        0.0367308694
 O          1.4010746223       -0.1446899204        1.2122339558
