  62
        -98.93616888
 C          2.4843965020        0.9283449752        0.5806466805
 C          2.8573587021       -0.3105572857        1.1635994926
 C          4.2499950479       -0.7285164650        0.9752443469
 C          5.0970604822        0.0699551634        0.3013200912
 C          6.5549865503       -0.1991693255        0.0441474763
 C          6.8185593310       -1.0952142514       -1.1737535490
 C          6.4615938451       -2.5701952043       -0.9855904669
 H          6.8968914956       -3.1148130588       -1.8257791094
 H          6.9329961454       -2.9437958835       -0.0761015948
 C          4.9539909062       -2.8565259404       -0.9408806316
 H          4.7265326448       -3.7136181238       -1.5787118105
 H          4.4072198750       -2.0023092104       -1.3471240168
 C          4.4090618670       -3.1725971122        0.4521427685
 H          3.3285996021       -3.3187855419        0.3724770909
 H          4.8493600840       -4.1036086369        0.8161668706
 C          4.6609434387       -2.0737041473        1.4928307267
 H          4.0526262429       -2.2898548946        2.3746143940
 H          5.7108952343       -2.0646589402        1.7849642329
 H          6.2688788543       -0.6935123421       -2.0279853086
 H          7.8846227757       -1.0278289857       -1.4025383116
 H          7.0064530415       -0.6454285563        0.9306540532
 H          7.0229320417        0.7712514116       -0.1344512684
 O          4.7109022800        1.2613321853       -0.2225551802
 C          3.3974821748        1.7123291220       -0.1266976834
 O          3.2058542750        2.7991491767       -0.7002702510
 O          2.0592515891       -1.0311720701        1.8226300200
 C          1.0383530303        1.3502412783        0.7619633026
 C          0.1687383741        0.8602721278       -0.3675406598
 C          0.5469844532        1.0117949793       -1.6980458216
 C         -0.2839997364        0.5787039522       -2.7152099866
 C         -1.5111699502        0.0067340349       -2.4288822561
 C         -1.8947178896       -0.1557595149       -1.1029263992
 C         -1.0484159403        0.2596174897       -0.0839816987
 H         -1.3533581575        0.1113528738        0.9415865494
 N         -3.1252105767       -0.7440161362       -0.7731434328
 S         -3.9461121135       -0.1340277875        0.5730770805
 O         -3.8458064204        1.3073610223        0.5952420183
 O         -3.4839762637       -0.8239691959        1.7510085475
 C         -5.6143189560       -0.6361240290        0.1951708811
 C         -6.4662013166        0.2600315189       -0.4225664890
 C         -7.7514512733       -0.1488714910       -0.7421434930
 C         -8.1593285168       -1.4402032355       -0.4430867850
 C         -7.2930306002       -2.3279004348        0.1779167104
 C         -6.0070071982       -1.9254841004        0.5014694742
 H         -5.3020756938       -2.5762310965        0.9923330433
 H         -7.6147648281       -3.3299491689        0.4115598078
 H         -9.1598863572       -1.7560526299       -0.6928356189
 H         -8.4284094767        0.5398508435       -1.2213853482
 H         -6.1081632753        1.2561949593       -0.6275288739
 H         -3.7356634974       -0.8585929296       -1.5706889971
 H         -2.1636480767       -0.3175398020       -3.2252831661
 H          0.0211489797        0.7023634950       -3.7435163762
 H          1.4916089325        1.4834403389       -1.9243697327
 H          0.7056059942        0.8275516010        1.6742174311
 C          0.8649446240        2.8417314045        1.0143548053
 C          0.2896627219        3.7908575123        0.0111582624
 C         -0.5049800600        3.4174420239        1.2244447471
 H         -0.6389170018        4.1540579612        2.0025408802
 H         -1.3557860118        2.7640038768        1.0896490489
 H          0.7226602926        4.7775762173       -0.0479043800
 H         -0.0218235698        3.3964340488       -0.9430224996
 H          1.6566385926        3.2356387037        1.6443998967
