  62
        -98.93363730
 C         -2.7493837029       -0.1773513327        0.3587961401
 C         -2.5540544580       -1.0438897569       -0.7497241699
 C         -1.8676421743       -2.3111832529       -0.4839721710
 C         -1.5057127493       -2.6141056039        0.7749648646
 C         -0.7779622140       -3.8518580791        1.2225941002
 C          0.6807247484       -3.9491434073        0.7315204799
 C          0.8573893734       -4.7886867158       -0.5399498726
 H          1.7658917508       -5.3864742550       -0.4420094409
 H          0.0257404424       -5.4908200290       -0.6154098597
 C          0.9804884333       -4.0036758906       -1.8498026332
 H          1.9914467145       -3.5968167474       -1.9293206779
 H          0.8396656856       -4.7057462284       -2.6751085886
 C          0.0136433774       -2.8316236416       -2.0262259112
 H          0.0702939984       -2.4960490720       -3.0644232217
 H          0.3502530892       -1.9854249280       -1.4194293558
 C         -1.4537185422       -3.1398837465       -1.6641406967
 H         -2.1071468276       -2.8591020706       -2.4926880991
 H         -1.5867990393       -4.2013199713       -1.4603564733
 H          1.0759069577       -2.9424911190        0.5856606063
 H          1.2589549803       -4.4138589086        1.5319899119
 H         -0.7895051001       -3.8245753708        2.3139187382
 H         -1.3359302300       -4.7333016275        0.8998643662
 O         -1.7814421079       -1.7964137343        1.8229178298
 C         -2.3199001525       -0.5295821507        1.6374440047
 O         -2.3576930262        0.1437392180        2.6884389275
 O         -2.9290621416       -0.7528012144       -1.9177340854
 C         -3.2430703057        1.2189462451        0.0131935410
 C         -2.0469726089        2.0058407385       -0.4771403631
 C         -2.0799117217        2.7440210343       -1.6532596225
 C         -0.9307645919        3.3377807260       -2.1478506666
 C          0.2799491411        3.1831623783       -1.4953814061
 C          0.3146052269        2.4674797553       -0.3086662408
 C         -0.8437161829        1.9127013344        0.2067985281
 H         -0.7931613457        1.3465929833        1.1271793074
 N          1.5717014818        2.2038187434        0.3143397282
 S          2.1490568592        0.7099267287       -0.2561548621
 O          2.0928423199        0.7353674133       -1.6951817316
 O          1.4585256519       -0.3821309712        0.3983596071
 C          3.8469567516        0.7696657463        0.2830964926
 C          4.2448610366        0.0470465699        1.3904616115
 C          5.5616185021        0.1413347444        1.8142286979
 C          6.4500922487        0.9561949142        1.1296227195
 C          6.0345801132        1.6767749784        0.0194323143
 C          4.7206144107        1.5853663784       -0.4099184881
 H          4.3523072088        2.1189031390       -1.2701404172
 H          6.7289042410        2.3083139522       -0.5108252302
 H          7.4732884499        1.0287970806        1.4628682338
 H          5.8868434034       -0.4195157783        2.6756733209
 H          3.5203953939       -0.5770474522        1.8894352592
 H          1.4588201126        2.1022158826        1.3163903093
 H          1.1938271573        3.5852974023       -1.9000445135
 H         -0.9725141591        3.8973863570       -3.0697650162
 H         -3.0062830766        2.8196754621       -2.2030199132
 H         -3.9273712960        1.0960990396       -0.8377510165
 C         -3.9729305733        1.9533557062        1.1164621028
 C         -4.9308910437        3.0467929206        0.7518884948
 C         -5.4466147032        1.7462461341        1.2883997777
 H         -5.8449408122        1.7172475009        2.2909981497
 H         -5.9381461025        1.0704009460        0.6039894372
 H         -4.9772628987        3.9189934890        1.3852742435
 H         -5.0798260570        3.2552906126       -0.2965008547
 H         -3.3830047693        2.0784405801        2.0145645921
