  62
        -98.94419616
 C          1.8211526793        0.5892623298       -0.2699308003
 C          2.9017254990        1.2992825299        0.3062798101
 C          4.2392816192        0.9116242703       -0.1542251697
 C          4.3707512696       -0.0474761394       -1.0888543899
 C          5.6662430098       -0.5295364989       -1.6838110398
 C          6.3797158599       -1.5996878990       -0.8462606399
 C          7.0275289495       -1.0919444791        0.4425607204
 H          7.6682216996       -1.8933147191        0.8159249703
 H          7.6702359994       -0.2412352889        0.2139255407
 C          6.0292479192       -0.7050142997        1.5425877103
 H          5.0530029494       -1.1404371698        1.3166679800
 H          6.3552312191       -1.1281204198        2.4954627202
 C          5.8648083888        0.8009816002        1.7477164906
 H          6.8061240286        1.2272741804        2.1013782209
 H          5.1106466186        0.9611573499        2.5224304805
 C          5.4236193389        1.5648287305        0.4921692607
 H          6.2507694790        1.6390514608       -0.2133113691
 H          5.1252698586        2.5726882403        0.7907495509
 H          7.1610569101       -2.0359220086       -1.4729582798
 H          5.6646577000       -2.3907704992       -0.6084481502
 H          5.4190744101       -0.9618000388       -2.6558603799
 H          6.3349130297        0.3174596913       -1.8402576594
 O          3.3046730299       -0.6942040695       -1.6320336003
 C          2.0082507097       -0.4115553399       -1.2229267405
 O          1.1338478000       -1.1043334900       -1.7779349708
 O          2.7543404186        2.2106075597        1.1639060403
 C          0.4072086891        0.9316915393        0.1621203895
 C         -0.2844985807       -0.2875812610        0.7177771991
 C          0.3747060493       -1.0572779910        1.6735115390
 C         -0.2161619606       -2.1895009513        2.1983010986
 C         -1.4819369604       -2.5729899815        1.7915782483
 C         -2.1565853104       -1.8025834614        0.8515312883
 C         -1.5603821606       -0.6625528712        0.3271748187
 H         -2.0908447005       -0.0946247611       -0.4179099612
 N         -3.4519679602       -2.1485014117        0.4676765880
 S         -4.3640093002       -1.3820560416       -0.6834090120
 O         -5.5975121600       -2.1401532019       -0.7057417425
 O         -3.6800459999       -1.2640887411       -1.9492832419
 C         -4.6836217607        0.2374417282       -0.0103572517
 C         -4.8278843410        0.3953087478        1.3536138983
 C         -5.1102826414        1.6557754976        1.8555341786
 C         -5.2520395415        2.7306142678        0.9915485788
 C         -5.1120490112        2.5550870582       -0.3760834212
 C         -4.8244702708        1.2976907784       -0.8833155915
 H         -4.6967146505        1.1178487187       -1.9392968315
 H         -5.2226413812        3.3915761083       -1.0476140310
 H         -5.4716029318        3.7105164676        1.3850171890
 H         -5.2184291917        1.7954876473        2.9191134486
 H         -4.7121301109       -0.4569570523        2.0021339381
 H         -3.8191366601       -3.0274094918        0.7928089777
 H         -1.9422684403       -3.4622554217        2.1935644979
 H          0.3123882994       -2.7820950114        2.9299208886
 H          1.3654496791       -0.7601057009        1.9896451393
 H          0.5218666488        1.6624945992        0.9770219697
 C         -0.3419918908        1.5905094595       -0.9766835005
 C         -1.4296541811        2.5818173191       -0.6936234804
 C         -0.1156786911        3.0476039396       -1.2429325201
 H         -0.0720689410        3.3835782898       -2.2680899900
 H          0.5607488786        3.5704586196       -0.5827322198
 H         -2.2913751610        2.5955787691       -1.3433791106
 H         -1.6552115714        2.7965658188        0.3398761796
 H         -0.4567064505        0.9357361896       -1.8344347307
