  62
        -98.93663094
 C          2.3079542367        0.6453909953        0.0331299525
 C          3.2995594920        0.2623643784        0.9708017397
 C          4.1948821705       -0.8364054415        0.5751550121
 C          4.0218108469       -1.4267789327       -0.6196768911
 C          4.7761179746       -2.5910299285       -1.2117663083
 C          6.3009141221       -2.6097356725       -1.0397789569
 C          6.9707854459       -1.2278833271       -1.0391256511
 H          7.7940387906       -1.2322581998       -1.7559721683
 H          6.2596704826       -0.4668134729       -1.3650054685
 C          7.5407458566       -0.8412651010        0.3277682812
 H          8.2961056409       -0.0644937738        0.1863102594
 H          8.0433635021       -1.7110831482        0.7563041437
 C          6.5237298936       -0.3050807112        1.3345072693
 H          7.0339011206       -0.1773728210        2.2922595659
 H          6.1787547097        0.6841073586        1.0214789933
 C          5.2812203010       -1.1840245507        1.5520357793
 H          5.5342005015       -2.2406944185        1.5137725154
 H          4.8788496004       -0.9575853897        2.5430586452
 H          6.7025996367       -3.2086544879       -1.8589104403
 H          6.5575906237       -3.1288942214       -0.1174848177
 H          4.3577491756       -3.5123645534       -0.7960967095
 H          4.5280335095       -2.5774450837       -2.2758178831
 O          3.0480416233       -1.0338219077       -1.4875603230
 C          2.1730430585        0.0008529046       -1.1952803402
 O          1.3530670648        0.2352481747       -2.1041888891
 H         -0.7472323916        1.3709977233       -1.2834002770
 C         -0.9600954728        1.0372918698       -0.2798491386
 C          0.0022796759        1.1745250754        0.7088908195
 C         -0.2878249978        0.7115417476        1.9891237018
 C         -1.5082126061        0.1250711548        2.2678246389
 C         -2.4608699405       -0.0227862917        1.2747734934
 C         -2.1796788768        0.4310275466       -0.0066801853
 N         -3.1250088309        0.2528125238       -1.0294617155
 S         -4.7187044788        0.6909986226       -0.7579367452
 O         -5.2716660921        0.9490390363       -2.0695774965
 O         -4.8166000764        1.7656304955        0.2027524775
 C         -5.4618058736       -0.7861428043       -0.0968024221
 C         -6.1144651665       -0.7452658408        1.1196474869
 C         -6.6897952636       -1.9068161047        1.6111527982
 C         -6.6036324644       -3.0820647567        0.8807589551
 C         -5.9475849230       -3.1056849881       -0.3411137926
 C         -5.3711135107       -1.9478237179       -0.8382023603
 H         -4.8549735461       -1.9237874576       -1.7836408891
 H         -5.8825079689       -4.0214417717       -0.9064726116
 H         -7.0503748328       -3.9852167866        1.2655445339
 H         -7.2009107610       -1.8905291498        2.5603354446
 H         -6.1520278530        0.1902614303        1.6548127802
 H         -2.8046673439        0.5566705990       -1.9371098147
 H         -3.4119664725       -0.4849893172        1.4828095697
 H         -1.7197130520       -0.2256353937        3.2665128922
 H          0.4621239785        0.8091292486        2.7614288639
 C          1.3603749781        1.7677822427        0.4243002789
 H          1.7584370897        2.1645869432        1.3679054266
 C          1.3308134317        2.8865679894       -0.5961594031
 C          0.7149915598        4.1999595138       -0.2198130154
 C          2.1996479773        4.0895472699       -0.3904119941
 H          2.6557001404        4.5490968555       -1.2545590457
 H          2.8182518907        4.1147549836        0.4947051046
 H          0.3240800030        4.2970665811        0.7818699217
 H          0.1483688105        4.7374400254       -0.9649467837
 H          1.2026065352        2.5416064070       -1.6146045791
 O          3.4274796822        0.8118419079        2.0968472176
