  62
        -98.93902762
 C         -1.8104678027       -0.5311121809        0.0104012498
 C         -2.9039108435       -0.5682229525        0.9131363336
 C         -4.0848383079        0.2546620046        0.5918555217
 C         -4.0624640187        1.0024561677       -0.5266902918
 C         -5.1468970841        1.8860632423       -1.0831511647
 C         -6.2780061889        1.0877494825       -1.7513103482
 C         -6.7453958466       -0.1394171835       -0.9731605963
 H         -7.4655955391       -0.6739695694       -1.5982205945
 H         -5.8969364136       -0.8071619140       -0.8136059089
 C         -7.4177374161        0.1560479337        0.3654271064
 H         -8.2864280657        0.7963819006        0.1964176097
 H         -7.7797104980       -0.7955138790        0.7631931844
 C         -6.5327956400        0.8083580441        1.4298950792
 H         -6.4026319960        1.8697864861        1.2362797513
 H         -7.0615138724        0.7305507669        2.3844844591
 C         -5.1762622531        0.1394268976        1.6283309083
 H         -4.7361077073        0.5136592283        2.5606371822
 H         -5.3258205283       -0.9337971918        1.7925385762
 H         -5.9201660862        0.7470036835       -2.7259847018
 H         -7.1217508785        1.7594435342       -1.9182952939
 H         -5.5375412802        2.5332924262       -0.3034229827
 H         -4.6773309603        2.5213596097       -1.8375929497
 O         -2.9886434259        1.0139055014       -1.3641001774
 C         -1.8479552561        0.2681812013       -1.1310403079
 O         -0.9719489164        0.4190292513       -2.0083643478
 H          0.7874741758        0.6465232887       -0.7234311421
 C          1.1297700866        0.4107418000        0.2731965919
 C          0.5018760879       -0.6005638109        0.9865438720
 C          0.9512184799       -0.8845087961        2.2705111202
 C          2.0022367643       -0.1736411676        2.8245672674
 C          2.6260529670        0.8328890949        2.1098662042
 C          2.1776234899        1.1284809454        0.8290795047
 N          2.8194420239        2.1411703631        0.0843933370
 S          4.4557978490        1.8850879509       -0.1816238948
 O          5.1916107032        2.2590459147        1.0003092398
 O          4.7788305567        2.6163474988       -1.3861876138
 C          4.5857869163        0.1263585321       -0.4490845290
 C          5.1258850301       -0.6813739189        0.5305781635
 C          5.1422504526       -2.0526979732        0.3328152660
 C          4.6157739194       -2.5891696942       -0.8316024319
 C          4.0774579329       -1.7637156613       -1.8068756099
 C          4.0573081545       -0.3923418449       -1.6144387202
 H          3.6474214609        0.2786661495       -2.3528244346
 H          3.6684218849       -2.1810919123       -2.7132348286
 H          4.6250527451       -3.6574029152       -0.9811237112
 H          5.5598212514       -2.6978744561        1.0886787018
 H          5.5230063590       -0.2225531277        1.4209755122
 H          2.3539492164        2.3307988919       -0.7923466607
 H          3.4516056819        1.3929364380        2.5186654066
 H          2.3401014809       -0.4061711000        3.8227684251
 H          0.4640435416       -1.6629924639        2.8390048842
 C         -0.6137173917       -1.4002093187        0.3574865674
 H         -0.9850847882       -2.1059708764        1.1123059712
 C         -0.0817419165       -2.1918495722       -0.8225851647
 C          0.7462170112       -3.4127987904       -0.5621721406
 C         -0.6418845427       -3.5508977156       -1.1102011964
 H         -0.7665004805       -3.8480346367       -2.1406953488
 H         -1.4161027436       -3.9216013213       -0.4542226716
 H          1.5805277817       -3.6157230958       -1.2148324795
 H          0.9144432948       -3.6911774754        0.4668028757
 H          0.1828011025       -1.5731952728       -1.6699768685
 O         -2.9026406492       -1.2773078532        1.9552063124
