  62
        -98.94369177
 C         -1.7074022151        1.1141851061        0.3110813896
 C         -0.7020844959        1.6707899820        1.1318743099
 C          0.1860025875        2.6668091525        0.5074855095
 C          0.0421985910        2.9487505126       -0.8009578716
 C          0.7748442022        3.9310439971       -1.6908420641
 C          2.1129751905        4.5291943211       -1.2647539718
 C          3.2589613918        3.5243165947       -1.1717014531
 H          3.4668524762        3.1329315576       -2.1708543925
 H          4.1496516661        4.0563637657       -0.8287674247
 C          3.0082480234        2.3336471131       -0.2493389223
 H          2.2286611208        1.6957612646       -0.6741331831
 H          3.9221908423        1.7324816940       -0.2227676753
 C          2.6468475994        2.7032157159        1.1889241085
 H          2.7298723180        1.7955596017        1.7903527498
 H          3.3745437977        3.4214770190        1.5718113623
 C          1.2321524866        3.2780073124        1.3969336594
 H          0.9243903920        3.0564058752        2.4231383208
 H          1.2264953806        4.3604362317        1.2827748651
 H          2.0076536436        5.0676996785       -0.3275276967
 H          2.3797313306        5.2653784501       -2.0280546021
 H          0.9042104455        3.4144841078       -2.6475353296
 H          0.0708011757        4.7508674454       -1.8740923145
 O         -0.9267915255        2.3636301161       -1.5621768202
 C         -1.8114464546        1.4366282692       -1.0410347103
 O         -2.6354061146        0.9938670160       -1.8648689902
 H         -0.3725364807       -1.0933847871        0.2529032785
 C         -1.1984101102       -1.6420486885       -0.1690686828
 C         -2.4929910268       -1.2048052497        0.0807112307
 C         -3.5510123601       -1.9307849579       -0.4476767058
 C         -3.3047524037       -3.0342660796       -1.2477333186
 C         -2.0128097326       -3.4194784849       -1.5536993553
 C         -0.9458655423       -2.7097437020       -1.0111672757
 N          0.3791756160       -3.0669314818       -1.2911967565
 S          1.6325834119       -1.9573511110       -1.2449182835
 O          1.2035575622       -0.6154003920       -1.5598642301
 O          2.6347897699       -2.5281897089       -2.1213216494
 C          2.2114174048       -2.0799358983        0.4345518212
 C          2.8335337109       -3.2552258467        0.8105594103
 C          3.2726227855       -3.3950426614        2.1165539475
 C          3.0787606549       -2.3643555481        3.0246059278
 C          2.4565862274       -1.1900635931        2.6317581997
 C          2.0210047270       -1.0432745610        1.3239754328
 H          1.5329153301       -0.1397257883        0.9924320086
 H          2.2931460906       -0.3868495746        3.3331782184
 H          3.4147863671       -2.4742593897        4.0435880584
 H          3.7603630661       -4.3058186278        2.4244271037
 H          2.9691303653       -4.0273591160        0.0717610814
 H          0.4974517732       -3.7515140403       -2.0224922166
 H         -1.8269449943       -4.2549285402       -2.2113711153
 H         -4.1342294850       -3.5877760880       -1.6615435175
 H         -4.5656253640       -1.6236745990       -0.2536763520
 C         -2.6468844107        0.0648573618        0.8819248326
 H         -2.2987976819       -0.1197233423        1.9089560112
 C         -4.0672504102        0.5855475555        0.9297823501
 C         -5.0295262701        0.0617751708        1.9527376010
 C         -4.4846144584        1.4517634788        2.0789833870
 H         -5.1416142701        2.2858075929        1.8830684287
 H         -3.7477118838        1.6473918832        2.8440783563
 H         -6.0652478623       -0.0573380365        1.6726480543
 H         -4.6682384863       -0.6879422356        2.6400210430
 H         -4.4482655036        0.8395775679       -0.0532786306
 O         -0.5506431135        1.3553028013        2.3441193009
