  62
        -98.94008230
 C         -2.6358221822       -1.1429272743        0.2717237161
 C         -2.5710113278       -0.3044994052       -0.8690386504
 C         -3.4203986596        0.8970497403       -0.8294842197
 C         -4.1823741469        1.1375702801        0.2519358755
 C         -5.0421021341        2.3524480767        0.4446826745
 C         -4.2683612812        3.4709916952        1.1570785048
 C         -2.8934445117        3.7552734906        0.5515858088
 H         -2.4532247748        4.5787513796        1.1183692689
 H         -2.2504060689        2.8843203588        0.7006450334
 C         -2.9180699101        4.1162073175       -0.9403786658
 H         -3.9251740451        4.4173099189       -1.2310258894
 H         -2.2632807352        4.9748458116       -1.1028653395
 C         -2.4335152216        3.0031796829       -1.8715366136
 H         -1.4641928106        2.6319492940       -1.5284659698
 H         -2.2857927944        3.4325847957       -2.8658490350
 C         -3.3791525221        1.8054020157       -2.0259571672
 H         -4.3813084603        2.1565619575       -2.2794861891
 H         -3.0072402059        1.1946346752       -2.8536736514
 H         -4.8732209722        4.3791837513        1.1323775433
 H         -4.1291989094        3.1842194174        2.2022386169
 H         -5.3939778488        2.6998103848       -0.5246714170
 H         -5.9024528570        2.0727482207        1.0550329938
 O         -4.2098483358        0.3161101582        1.3333805599
 C         -3.4227735281       -0.8234774809        1.3804000329
 O         -3.5043711927       -1.4565515330        2.4528456537
 H         -0.2311864459       -0.4904123883        1.3752269593
 C          0.2920924154       -1.0404744620        0.6007937569
 C         -0.3651277893       -2.0813172378       -0.0453615794
 C          0.3178897753       -2.7832071310       -1.0287072222
 C          1.6159444014       -2.4361776139       -1.3619355944
 C          2.2579348746       -1.3877539818       -0.7300783148
 C          1.5866083929       -0.6820278220        0.2602204250
 N          2.2217554318        0.3996973730        0.8958393845
 S          3.7650302387        0.1677199922        1.5139010418
 O          3.9758859596       -1.2060321828        1.9085167561
 O          3.9072781787        1.1633889992        2.5541737974
 C          4.8405224955        0.5885353410        0.1592784500
 C          5.8083382236       -0.3050945945       -0.2555924273
 C          6.6430207038        0.0506017073       -1.3037865480
 C          6.4963731693        1.2869041509       -1.9139061964
 C          5.5205787819        2.1738288212       -1.4836158857
 C          4.6839241170        1.8251111121       -0.4355513159
 H          3.9154385228        2.4857401950       -0.0699515395
 H          5.4087800563        3.1340529572       -1.9609820129
 H          7.1462855189        1.5613560971       -2.7297324448
 H          7.4022856182       -0.6371258000       -1.6398144331
 H          5.8812241877       -1.2574519471        0.2449861511
 H          1.6382832446        0.8762689360        1.5679430510
 H          3.2647335884       -1.1092255970       -0.9953175041
 H          2.1323078705       -2.9858414430       -2.1341127530
 H         -0.1722286651       -3.5876920206       -1.5514841507
 C         -1.7784247915       -2.3919030990        0.3866935870
 H         -1.7514930336       -2.6179891065        1.4663711080
 C         -2.3647023919       -3.6200301188       -0.2936321183
 C         -3.8432128574       -3.7581840217       -0.4985631964
 C         -2.9375411599       -3.5740763020       -1.6770821893
 H         -2.7696901620       -4.4194273822       -2.3283874066
 H         -2.9364976892       -2.6231245042       -2.1849395946
 H         -4.2935144723       -4.7263325771       -0.3379483935
 H         -4.4703473216       -2.9311348700       -0.1979724726
 H         -1.8355599681       -4.5260931000       -0.0141901326
 O         -1.8458869226       -0.5313211275       -1.8702580544
