  62
        -98.94339391
 C         -2.2831139745       -0.5758278111        0.0389178732
 C         -3.1869306649       -0.2530277716        1.0874301586
 C         -4.1431155894        0.8280539291        0.8225343064
 C         -4.1037573713        1.4596713342       -0.3643490766
 C         -5.0524897385        2.5391646188       -0.7958622781
 C         -6.2661752964        1.9496582828       -1.5281712668
 C         -6.9280895556        0.7863103848       -0.7894915679
 H         -7.7890780901        0.4720567237       -1.3834720884
 H         -6.2344779161       -0.0571865115       -0.7589385708
 C         -7.3851076613        1.1180343555        0.6380018154
 H         -8.3902500802        0.7173970312        0.7853809731
 H         -7.4458241247        2.1994026689        0.7656026611
 C         -6.5039592948        0.5266141645        1.7400144461
 H         -6.3634767656       -0.5425858804        1.5622454522
 H         -7.0319618033        0.6333078978        2.6912976596
 C         -5.1227784372        1.1723965539        1.9087813602
 H         -5.2313070276        2.2549538157        2.0000974379
 H         -4.6879706564        0.7902686470        2.8368440615
 H         -6.9956392020        2.7464495840       -1.6843465484
 H         -5.9392249617        1.5914649966       -2.5071611454
 H         -5.3788224052        3.0990431361        0.0783979977
 H         -4.5234271225        3.2130290881       -1.4717915428
 O         -3.2115362539        1.1437979591       -1.3346707411
 C         -2.2904870257        0.1190744625       -1.1702901582
 O         -1.5594776567       -0.0459636066       -2.1692604887
 O         -3.1961788645       -0.8533981714        2.1947141729
 C         -1.3272414318       -1.7268497533        0.3044673528
 C          0.0608214397       -1.2549638136        0.6683719129
 C          0.6241023219       -1.5849362146        1.8955045440
 C          1.9099648870       -1.1830059843        2.2122176052
 C          2.6580015736       -0.4417867908        1.3153424258
 C          2.1029340729       -0.1027761353        0.0883283847
 C          0.8164828042       -0.5137047103       -0.2290265517
 H          0.3909609971       -0.2474982937       -1.1854505542
 N          2.8487584396        0.6694727881       -0.8234495680
 S          4.3439185165        0.0633243945       -1.2962785177
 O          4.6161033425        0.6712319554       -2.5804275883
 O          4.3668071262       -1.3808816512       -1.2511087459
 C          5.4759957108        0.7258127375       -0.0917261129
 C          5.5450036157        2.0977455954        0.0525661294
 C          6.4273564726        2.6292720706        0.9794627904
 C          7.2235726339        1.7851319668        1.7394593788
 C          7.1452901450        0.4101089173        1.5798095124
 C          6.2636712125       -0.1281918047        0.6552312769
 H          6.1638930249       -1.1905548444        0.5000070254
 H          7.7653918387       -0.2443188600        2.1710917418
 H          7.9095183705        2.2017683499        2.4600276252
 H          6.4912587610        3.6980207461        1.1062529210
 H          4.9118354560        2.7175355596       -0.5603098003
 H          2.3134615257        0.9389621777       -1.6372314983
 H          3.6587793228       -0.1228765856        1.5570007604
 H          2.3341113857       -1.4477819599        3.1686506688
 H          0.0426469031       -2.1539793282        2.6061357219
 H         -1.7421422541       -2.2411437224        1.1818902625
 C         -1.2583254237       -2.7195517937       -0.8409962302
 C         -0.8108029689       -4.1217664557       -0.5626018441
 C         -2.2448720634       -3.8451481540       -0.8992703251
 H         -2.6199078049       -4.1516064686       -1.8642311147
 H         -2.9757200507       -3.9098031350       -0.1062589603
 H         -0.1947885209       -4.6196234739       -1.2957416908
 H         -0.5701419681       -4.3762165216        0.4583967005
 H         -0.9580989595       -2.2730232642       -1.7803702936
