  62
        -98.94065426
 C         -2.2323319465       -1.0921886008        0.4018648999
 C         -2.5255099907       -0.2102813306       -0.6671495082
 C         -3.3945347478        0.9285149470       -0.3346610408
 C         -3.8006263481        1.1223262803        0.9321368753
 C         -4.6523531165        2.2586626799        1.4291222516
 C         -6.1598129022        2.0392089704        1.2412057343
 C         -6.6583877151        2.1463652335       -0.2004554503
 H         -7.7485355378        2.1891634139       -0.1596994707
 H         -6.3116528249        3.0847047169       -0.6344997223
 C         -6.2437670562        0.9752623891       -1.1020750812
 H         -5.9236775130        0.1346590855       -0.4820746924
 H         -7.1069680516        0.6369372391       -1.6795381983
 C         -5.1332085428        1.3054218158       -2.0993903614
 H         -5.4891223317        2.0551711331       -2.8093967764
 H         -4.8939229738        0.3979508234       -2.6596212986
 C         -3.8388179201        1.8196256002       -1.4556088241
 H         -3.0524915524        1.8171954971       -2.2146976412
 H         -3.9749845070        2.8404722502       -1.0989121069
 H         -6.4225780210        1.0592939775        1.6462995845
 H         -6.6749913299        2.7948854142        1.8385499357
 H         -4.4480884167        2.3535761025        2.4978558781
 H         -4.3527435263        3.1840277813        0.9358990275
 O         -3.4497187666        0.2850700200        1.9441589803
 C         -2.6859605091       -0.8433972154        1.7010888890
 O         -2.4779861218       -1.5443617952        2.7116117372
 H          0.0337455968       -0.5172798398       -1.1318000837
 C          0.6440709360       -1.0244863721       -0.3985150746
 C          0.0730619069       -2.0157372212        0.3887208598
 C          0.8677839566       -2.6562939768        1.3311198047
 C          2.2004187127       -2.3114340209        1.4780861005
 C          2.7655430955       -1.3248329391        0.6900703849
 C          1.9776066367       -0.6750325388       -0.2511532260
 N          2.5427060674        0.3334073749       -1.0566669687
 S          3.2573802828        1.6247022322       -0.2506132834
 O          2.6581540854        1.8326786179        1.0483979994
 O          3.1948081191        2.7364167267       -1.1743264092
 C          4.9552003016        1.1194570104       -0.0687488868
 C          5.5314965622        1.0781316715        1.1856245140
 C          6.8572753881        0.6893944366        1.3011205367
 C          7.5787892640        0.3514870882        0.1664317846
 C          6.9855354435        0.4001909915       -1.0864908300
 C          5.6612937465        0.7892007727       -1.2091528704
 H          5.1634661240        0.8444448732       -2.1627868804
 H          7.5498470401        0.1365399479       -1.9664097914
 H          8.6097888176        0.0486405480        0.2591873624
 H          7.3197721628        0.6512191471        2.2742970566
 H          4.9287911251        1.3437608251        2.0395763587
 H          1.9011360439        0.6779998012       -1.7578524012
 H          3.8014900293       -1.0494546480        0.8029179020
 H          2.8055561933       -2.8150557415        2.2162978711
 H          0.4291267287       -3.4143198566        1.9634691327
 C         -1.3893221328       -2.3489641788        0.2421829539
 H         -1.6688108011       -2.9892196927        1.0934570916
 C         -1.7115236645       -3.1205698171       -1.0312564910
 C         -0.7473895471       -3.3060834587       -2.1608956164
 C         -1.0787030050       -4.4603624384       -1.2669068930
 H         -1.6896706342       -5.2617018329       -1.6536578781
 H         -0.3226142044       -4.7783530739       -0.5647909469
 H         -1.1472028640       -3.2906896852       -3.1634404872
 H          0.2325998558       -2.8635556202       -2.0778860108
 H         -2.7564960716       -3.0231862733       -1.3075346810
 O         -2.0923994797       -0.3401343047       -1.8419899552
