  62
        -98.93760942
 C         -2.3224501204       -1.2396615265       -0.0602225025
 C         -3.4255778557       -0.9236022495        0.7714038020
 C         -4.3781445754        0.0595745452        0.2409074562
 C         -4.1628476744        0.6061972422       -0.9691448224
 C         -5.0541981131        1.5848870729       -1.6874420647
 C         -5.2179313878        2.9695173979       -1.0314602254
 C         -6.4406808251        3.0946214826       -0.1139559798
 H         -6.8953394227        4.0753485667       -0.2677126070
 H         -7.1830119006        2.3547445758       -0.4157091972
 C         -6.1651530575        2.9603351342        1.3866672747
 H         -5.7348648036        3.8943650116        1.7550849355
 H         -7.1233295704        2.8182159784        1.8910715195
 C         -5.2196285230        1.8295733945        1.7922751022
 H         -5.2656474485        1.7195281570        2.8774999244
 H         -4.1900665584        2.1079480427        1.5541566054
 C         -5.5180575010        0.4723973572        1.1260870185
 H         -5.6166057221       -0.3026753940        1.8886176491
 H         -6.4464549650        0.5176438849        0.5589299118
 H         -4.3064155144        3.2260497849       -0.4919753367
 H         -5.3257780739        3.6913935683       -1.8426551484
 H         -4.6082848176        1.7102938658       -2.6763403191
 H         -6.0380465020        1.1290239133       -1.8204977619
 O         -3.0834772815        0.2834175479       -1.7329551796
 C         -2.1342140699       -0.6311532681       -1.3009354847
 O         -1.2036715728       -0.8133738787       -2.1104938403
 H          0.9394338956       -2.0044779597       -1.1133196459
 C          1.0234872937       -1.4695881432       -0.1807121575
 C         -0.0174709653       -1.5078110648        0.7329355495
 C          0.1045222167       -0.7794637441        1.9135565695
 C          1.2423885096       -0.0391311377        2.1712803888
 C          2.2790276777       -0.0005539605        1.2542321882
 C          2.1584307932       -0.7075027573        0.0662279367
 N          3.1992556903       -0.6686878500       -0.8769163721
 S          3.8925888400        0.8138704547       -1.2464804368
 O          2.9646848252        1.9068517036       -1.0675491610
 O          4.4485994382        0.6502678833       -2.5723343996
 C          5.2303476182        0.9493224404       -0.0767153406
 C          5.3699794632        2.0955144072        0.6810296851
 C          6.4245082295        2.1833078195        1.5767913945
 C          7.3168596731        1.1292402728        1.6975380210
 C          7.1646930767       -0.0139720266        0.9270248970
 C          6.1135450261       -0.1074645725        0.0290664379
 H          5.9613788449       -0.9768557711       -0.5883198169
 H          7.8604524144       -0.8317990512        1.0237753681
 H          8.1353143124        1.1991174979        2.3964921465
 H          6.5440246207        3.0716922359        2.1759934525
 H          4.6477128180        2.8870669192        0.5581542733
 H          2.9927274207       -1.1835405388       -1.7210521513
 H          3.1641180772        0.5847707209        1.4425749649
 H          1.3247364181        0.5167673961        3.0929148991
 H         -0.7138309944       -0.7923258264        2.6200215626
 C         -1.3040383605       -2.2440346723        0.4545209537
 H         -1.7081776618       -2.5998574063        1.4117629816
 C         -1.1493280257       -3.4264756406       -0.4781751521
 C         -0.4683433985       -4.6662775161        0.0171389496
 C         -1.9473343202       -4.6684441872       -0.2229121082
 H         -2.3327904584       -5.2146889409       -1.0707793229
 H         -2.6054496284       -4.6717191886        0.6334584214
 H          0.1640069907       -5.2152252141       -0.6637486851
 H         -0.1205986105       -4.6663412463        1.0389450302
 H         -0.9994286686       -3.1417748316       -1.5126896865
 O         -3.6111610743       -1.4486993594        1.9011000650
