  62
        -98.94529192
 C          2.1441184012        0.8729823417        0.0732223326
 C          2.8561940412        0.2066799858        1.0982236809
 C          3.6016889912       -0.9912125668        0.6899179360
 C          3.5302791015       -1.4053984008       -0.5885453097
 C          4.2811196829       -2.5761639202       -1.1523695160
 C          5.6418458034       -2.1429821867       -1.7163403879
 C          6.4587805519       -1.2733144403       -0.7606220476
 H          7.4086567957       -1.0541569940       -1.2528736272
 H          5.9435180503       -0.3207851356       -0.6174984261
 C          6.7280043992       -1.9140848215        0.6080939504
 H          6.5661201995       -2.9911023489        0.5512125353
 H          7.7769045427       -1.7570581517        0.8679415069
 C          5.8947373112       -1.3365712329        1.7536040812
 H          5.9815193551       -0.2471656146        1.7564918170
 H          6.3126532272       -1.7009882774        2.6957305119
 C          4.4046846845       -1.7007273657        1.7439350253
 H          3.9803743459       -1.3898764239        2.7033047556
 H          4.2902565599       -2.7829525270        1.6530161189
 H          5.4704959236       -1.5758498161       -2.6341768753
 H          6.2097563656       -3.0393985580       -1.9718142512
 H          4.4199383357       -3.3226895911       -0.3725960384
 H          3.6849931752       -3.0111769702       -1.9565302726
 O          2.7931361839       -0.7688110297       -1.5345127957
 C          2.0896013581        0.3894045298       -1.2343058463
 O          1.4695956747        0.8780627217       -2.1970418082
 O          2.8632022801        0.5925428297        2.2990385491
 C          1.3736225557        2.1360146330        0.4142208152
 C         -0.0966247424        1.9320316728        0.1426214738
 C         -0.8741911880        2.8189858454       -0.5892665865
 C         -2.2146419121        2.5546256456       -0.8130558107
 C         -2.8093819693        1.4137805434       -0.3073627611
 C         -2.0421605261        0.5220810292        0.4313307411
 C         -0.7007745439        0.7893943524        0.6536664963
 H         -0.1025588623        0.0903547745        1.2261976372
 N         -2.6397262219       -0.6339049397        0.9658825591
 S         -3.5324683599       -1.6116444592       -0.0684070135
 O         -3.4967796291       -2.9262873085        0.5358488628
 O         -3.0637070398       -1.5171965364       -1.4315775035
 C         -5.1850342784       -0.9606438339        0.0608030028
 C         -5.8591469318       -0.5609907814       -1.0763820832
 C         -7.1462661600       -0.0612361268       -0.9512935750
 C         -7.7331602041        0.0282488138        0.3016169755
 C         -7.0435176343       -0.3803007507        1.4336035191
 C         -5.7572113288       -0.8817915723        1.3154892947
 H         -5.1885327329       -1.2133633108        2.1680918760
 H         -7.5030615001       -0.3091762441        2.4062233324
 H         -8.7340054848        0.4188980501        0.3962974581
 H         -7.6837838232        0.2561537877       -1.8303579432
 H         -5.3595392628       -0.6438666838       -2.0286359719
 H         -2.0063832265       -1.1944748280        1.5180221738
 H         -3.8511433210        1.2027925627       -0.4848734690
 H         -2.8050796516        3.2484828695       -1.3916538332
 H         -0.4292725439        3.7121816538       -0.9954701918
 H          1.5037917828        2.2729908380        1.4982710387
 C          1.9682233149        3.3296389345       -0.3024531511
 C          1.8506506960        4.7008949622        0.2907128456
 C          3.1739064925        3.9981475413        0.2847517205
 H          3.9450707442        4.3504017439       -0.3838302276
 H          3.5517570867        3.6072856215        1.2183929597
 H          1.7151859246        5.5404080958       -0.3741663032
 H          1.3316660162        4.7944551124        1.2324829858
 H          1.9276106405        3.2294605172       -1.3813286381
