  62
        -98.93804416
 C          2.4827063812        1.1861954950       -0.0900036487
 C          3.2363382786        0.4865759053        0.8787875746
 C          4.0297484457       -0.6561323090        0.3933452520
 C          3.9916355633       -0.9672934395       -0.9142837876
 C          4.6689352760       -2.1219729314       -1.5993015480
 C          3.7192744995       -3.3284630803       -1.6929351928
 C          3.7316702866       -4.2550496080       -0.4775122435
 H          2.9272608045       -4.9815620107       -0.6139679286
 H          4.6726947815       -4.8085629263       -0.4577170070
 C          3.5445938366       -3.5641891220        0.8760180864
 H          2.7567751827       -2.8119341650        0.8000726509
 H          3.2037484140       -4.3152643295        1.5916343474
 C          4.8334086517       -2.9197843451        1.4083218965
 H          5.0061059294       -3.2521104894        2.4340903722
 H          5.6785212483       -3.2782203873        0.8210136733
 C          4.8371374504       -1.3836311103        1.4338129819
 H          5.8718903169       -1.0286946839        1.3841873639
 H          4.4338056316       -1.0351326036        2.3900655502
 H          2.7079870171       -2.9461547543       -1.8548992579
 H          3.9888446617       -3.9196245983       -2.5703390713
 H          5.5918364516       -2.3852194149       -1.0913833030
 H          4.9059631187       -1.7873880521       -2.6112474682
 O          3.2471156827       -0.2683705176       -1.8144020771
 C          2.4702086802        0.8124952838       -1.4338560224
 O          1.8316152233        1.3409778136       -2.3620404497
 O          3.2354016415        0.7931576933        2.1033759099
 C          1.6272988208        2.3614100535        0.3449146153
 C          0.1736539767        2.0883693776        0.0424981865
 C         -0.6748528770        3.0203578177       -0.5396665617
 C         -2.0009406028        2.7050448394       -0.7825180201
 C         -2.5095989827        1.4630404830       -0.4517918548
 C         -1.6743510239        0.5277985710        0.1459193272
 C         -0.3490264095        0.8493305082        0.3936094476
 H          0.2999749996        0.1194921760        0.8633296247
 N         -2.1762800607       -0.7430225221        0.4765327892
 S         -3.6060252580       -0.8335938932        1.3523311820
 O         -3.7796839418        0.3213063359        2.2025696916
 O         -3.5598409111       -2.1185208800        2.0154626487
 C         -4.8733623432       -0.8699689139        0.1028486186
 C         -4.7910869131       -1.8368173392       -0.8799301032
 C         -5.7738270045       -1.8837628796       -1.8556729509
 C         -6.8179128671       -0.9709797720       -1.8301156171
 C         -6.8883274779       -0.0090557974       -0.8341670825
 C         -5.9075579406        0.0444516161        0.1441139050
 H         -5.9168822332        0.7785676445        0.9339174978
 H         -7.7007239277        0.6994443092       -0.8160524401
 H         -7.5809812200       -1.0099039741       -2.5913570746
 H         -5.7218640700       -2.6299890977       -2.6320980848
 H         -3.9654288381       -2.5286353608       -0.8627698931
 H         -1.4826739460       -1.3650511926        0.8655991035
 H         -3.5390940152        1.2122226553       -0.6480472213
 H         -2.6468584781        3.4372150745       -1.2424174408
 H         -0.2973918074        3.9929821019       -0.8087388001
 H          1.7405622694        2.4180207339        1.4383720303
 C          2.1446546301        3.6475914004       -0.2639706710
 C          1.9611301053        4.9510918837        0.4524986475
 C          3.3200296454        4.3251362581        0.3721604958
 H          4.0624798146        4.7784768159       -0.2672031907
 H          3.7300706967        3.8722107595        1.2632516009
 H          1.7728150535        5.8389233804       -0.1320574920
 H          1.4501164921        4.9315910934        1.4033359168
 H          2.0948398744        3.6437119170       -1.3469560778
