  62
        -98.94049718
 C          1.2523164813        1.5953822244        0.0046245800
 C          2.1980308693        1.1374773211        0.9478110870
 C          3.1233565722        0.0774270472        0.5023609076
 C          2.9899273945       -0.4151436406       -0.7434242528
 C          3.8395888813       -1.4614363972       -1.4152853225
 C          3.5466208264       -2.8987693606       -0.9470837979
 C          3.2092262848       -3.0414375844        0.5353399955
 H          2.4066835903       -2.3464337917        0.7899571024
 H          2.8291023782       -4.0532418102        0.6999506155
 C          4.3876641565       -2.8328292829        1.4833569512
 H          5.1328746262       -3.6110312759        1.3011647972
 H          4.0192624818       -2.9594185469        2.5047692537
 C          5.0821807659       -1.4754467378        1.3861674665
 H          5.6523789901       -1.4013066766        0.4643023429
 H          5.8050500658       -1.4191641277        2.2056334246
 C          4.1589974419       -0.2706685677        1.5439885816
 H          3.6101506297       -0.3645294277        2.4883179899
 H          4.7788818491        0.6273158679        1.6600389781
 H          2.6951809089       -3.2702718287       -1.5192671403
 H          4.4085399274       -3.5238787764       -1.1856363546
 H          3.6289583232       -1.3935517130       -2.4845363035
 H          4.8880969512       -1.2117196197       -1.2733092544
 O          2.0057390097       -0.0004340080       -1.5901630698
 C          1.1307136576        1.0182059830       -1.2592260606
 O          0.3152677779        1.3119418904       -2.1510264946
 O          2.2790426650        1.6002679010        2.1194421041
 C          0.3434007004        2.7544582241        0.3721138663
 C         -1.1016399201        2.3325073575        0.2923881109
 C         -2.0619659055        3.0096010541       -0.4464387988
 C         -3.3688952382        2.5530389840       -0.4858160336
 C         -3.7485243154        1.4238025124        0.2153265884
 C         -2.7961552968        0.7428973294        0.9636235360
 C         -1.4879656355        1.1979962948        0.9972037833
 H         -0.7460744210        0.6635414029        1.5782961732
 N         -3.1757006254       -0.4141640795        1.6803268600
 S         -3.6716666248       -1.7229598068        0.7581417577
 O         -4.8901130596       -1.3756314672        0.0737704531
 O         -3.7475317720       -2.8353726393        1.6775787034
 C         -2.3532778252       -1.9826066038       -0.4124712404
 C         -2.3136480963       -1.2241012424       -1.5653270580
 C         -1.2467670241       -1.3832248940       -2.4347340099
 C         -0.2446353531       -2.2932160001       -2.1370162264
 C         -0.3001773661       -3.0490127979       -0.9761393932
 C         -1.3598425220       -2.8882437719       -0.0990695130
 H         -1.4413003688       -3.4561991888        0.8140904565
 H          0.4787354626       -3.7585657011       -0.7469021980
 H          0.5865827554       -2.4045512567       -2.8154932077
 H         -1.1887246983       -0.7814254183       -3.3267619359
 H         -3.1099709092       -0.5264506279       -1.7667353598
 H         -2.4657937660       -0.7239722924        2.3297468936
 H         -4.7579868398        1.0472698769        0.1828787591
 H         -4.1029193296        3.0863055769       -1.0706907848
 H         -1.7879646701        3.8919440775       -1.0004280618
 H          0.5732243002        2.9842967240        1.4231910167
 C          0.6751220631        3.9655944373       -0.4741086504
 C          0.3954998013        5.3446308755        0.0416825277
 C          1.8075927306        4.8529317237       -0.0558695752
 H          2.4483304735        5.2667634453       -0.8200232180
 H          2.3267696274        4.5983640512        0.8567261254
 H          0.0680772071        6.1004793427       -0.6560184813
 H         -0.0442969068        5.4312231289        1.0236983021
 H          0.5534809722        3.7796395227       -1.5352402232
