  62
        -98.93808185
 C         -2.0862659244       -0.9332901535        0.1011616391
 C         -2.4369614538        0.3589445184       -0.3533361942
 C         -3.7295964904        0.8899654008        0.1210849796
 C         -4.4775288525        0.1495114449        0.9568008052
 C         -5.8347138210        0.4807762624        1.5130308882
 C         -6.9448291132       -0.1126285017        0.6290537601
 C         -7.3888237196        0.7768808838       -0.5315322662
 H         -8.0754401848        0.1903550805       -1.1463536078
 H         -7.9481367284        1.6281056368       -0.1375880555
 C         -6.2599090561        1.3034929335       -1.4213888388
 H         -6.6957692955        1.5900810618       -2.3804905029
 H         -5.5430790525        0.5042278664       -1.6180930219
 C         -5.5359466044        2.5185947693       -0.8224580366
 H         -6.1170686136        2.9021878429        0.0159514333
 H         -5.4989504928        3.3192684700       -1.5642158282
 C         -4.0890359355        2.2643083135       -0.3744875101
 H         -3.4116204724        2.4404239820       -1.2161625346
 H         -3.8201389031        2.9940116584        0.3969156603
 H         -6.5889158937       -1.0713637837        0.2432778946
 H         -7.8180199132       -0.3156152931        1.2523416636
 H         -5.8883240405        0.0137655212        2.4987189335
 H         -5.9536510353        1.5540456684        1.6277159315
 O         -4.0926765708       -1.0844472132        1.3845390883
 C         -2.9012470379       -1.6518682439        0.9785461702
 O         -2.6800737890       -2.7826543879        1.4559353601
 O         -1.7211426584        1.0451854779       -1.1298277806
 C         -0.7756820457       -1.5882656770       -0.3073583739
 C          0.3547538686       -0.8276412916        0.3418169064
 C          0.6506332451       -1.0741042844        1.6799111273
 C          1.6447887664       -0.3641558647        2.3262900696
 C          2.3628734526        0.6094974131        1.6537421984
 C          2.0747281163        0.8623958124        0.3193477775
 C          1.0857594458        0.1366642723       -0.3336283740
 H          0.8617810362        0.3562859073       -1.3650577359
 N          2.7937067020        1.8518243637       -0.3684901437
 S          4.4481100347        1.9390184932       -0.1593531309
 O          4.7511205788        2.6149444531        1.0779700073
 O          4.9491836589        2.5685571943       -1.3608902956
 C          4.9949094655        0.2427312530       -0.0688679516
 C          4.7659238030       -0.5728384404       -1.1595214134
 C          5.1547136576       -1.9007889313       -1.0968732217
 C          5.7614592798       -2.3890013166        0.0505024713
 C          5.9883794569       -1.5566376472        1.1352180081
 C          5.6007557941       -0.2273202812        1.0781885907
 H          5.7574535504        0.4537094044        1.8987956605
 H          6.4623498626       -1.9383382317        2.0251401683
 H          6.0596601737       -3.4244804963        0.0978248813
 H          4.9806137191       -2.5499621182       -1.9399204434
 H          4.2975430808       -0.1606210210       -2.0386898854
 H          2.5239506957        1.9644919381       -1.3338998514
 H          3.1273251022        1.1874868237        2.1470828550
 H          1.8610072454       -0.5652448494        3.3645047740
 H          0.0779402802       -1.8231308683        2.2093068294
 H         -0.7985885583       -2.5956494827        0.1289767203
 C         -0.6507264567       -1.7137290033       -1.8112049677
 C          0.3785604009       -2.6391965523       -2.3849535899
 C         -1.0762562861       -2.9875115569       -2.4745946956
 H         -1.5640777554       -2.9287549578       -3.4361834991
 H         -1.4540361957       -3.7781717767       -1.8427307720
 H          0.8916864203       -2.3456830312       -3.2879543548
 H          0.9891391952       -3.1944888725       -1.6893331962
 H         -0.8579057572       -0.7913667835       -2.3390318667
