  62
        -98.93427904
 C         -2.0508227249       -0.4511154880        0.7548345816
 C         -3.1765004114        0.1666174759        1.3558030823
 C         -4.4636181948       -0.0408888959        0.6859403358
 C         -4.5200107684       -0.7986587351       -0.4241568103
 C         -5.7597287449       -1.1201089713       -1.2140068053
 C         -6.1514571919       -0.0357732561       -2.2273634640
 C         -6.7328195665        1.2424549165       -1.6215932960
 H         -7.1628009093        1.8188307754       -2.4431905517
 H         -7.5474362902        0.9840473255       -0.9443363476
 C         -5.7084481908        2.1189738957       -0.8874904242
 H         -4.6988474347        1.8251464164       -1.1840779900
 H         -5.8394899167        3.1610426375       -1.1877094090
 C         -5.8102749912        2.0705761480        0.6370768707
 H         -5.0169028661        2.6961484299        1.0536720591
 H         -6.7689367461        2.4870207326        0.9540449760
 C         -5.6669117512        0.6647558030        1.2347106706
 H         -5.5314726067        0.7628846641        2.3145279475
 H         -6.5682346063        0.0818782675        1.0467079378
 H         -5.2741223070        0.2119993362       -2.8293787765
 H         -6.9002741719       -0.4691939045       -2.8943915743
 H         -5.5494191072       -2.0420548636       -1.7603663062
 H         -6.5918133217       -1.3017325925       -0.5331591859
 O         -3.4214091175       -1.3907626627       -0.9601722410
 C         -2.1583500123       -1.2253192960       -0.4013128555
 O         -1.2558249293       -1.8097225380       -1.0261948691
 O         -3.1047961447        0.8618465482        2.4046385117
 C         -0.6973613886       -0.2348835591        1.4229436578
 C          0.2815735307        0.2813465681        0.4016316152
 C          0.1559443093        1.6286146164        0.0547865480
 C          0.9569642536        2.2042938676       -0.9103793755
 C          1.9359165932        1.4542006139       -1.5389261129
 C          2.0737031281        0.1151696410       -1.2039041950
 C          1.2428810621       -0.4696819220       -0.2561138828
 H          1.3682524210       -1.5199584656       -0.0702267356
 N          3.0831216265       -0.6800616232       -1.7924334063
 S          4.3075107847       -1.1662436685       -0.7593203318
 O          5.3199712987       -1.7578720953       -1.6047447339
 O          3.7654198549       -1.9985815723        0.2813148514
 C          4.9141604000        0.3617714790       -0.0632502379
 C          4.2367777661        0.9267621601        0.9994586625
 C          4.6551411372        2.1569663189        1.4815155755
 C          5.7367974366        2.7975870122        0.8967288207
 C          6.4086880860        2.2158512222       -0.1676961911
 C          5.9910606601        0.9891896457       -0.6584535822
 H          6.4841992027        0.4986737092       -1.4822654712
 H          7.2516060711        2.7148053001       -0.6181125916
 H          6.0577900303        3.7554893047        1.2744473020
 H          4.1310269653        2.6092720903        2.3080330385
 H          3.4012348592        0.4002788275        1.4320901569
 H          3.4913230066       -0.2667629559       -2.6195928408
 H          2.5779572691        1.8969251301       -2.2857492009
 H          0.8290734651        3.2448901260       -1.1664374038
 H         -0.6019338182        2.2206519205        0.5497219472
 H         -0.8814075103        0.5969961663        2.1222991601
 C         -0.3615875899       -1.4256745004        2.3109982810
 C         -0.0075457468       -2.8005701647        1.8331321603
 C          1.0037220657       -1.9822186735        2.5802877324
 H          1.2342123339       -2.2716106163        3.5954783540
 H          1.8553963943       -1.6068898821        2.0360319611
 H         -0.4635588748       -3.6420867936        2.3360966284
 H          0.1178450234       -2.9579114292        0.7736134468
 H         -1.0265163889       -1.4119034421        3.1725577494
