  62
        -98.94855183
 C         -1.5784294699       -1.0907844189        0.8534357775
 C         -2.5521041651       -0.5197388544       -0.0011237285
 C         -2.9650338669        0.8500176449        0.3260145961
 C         -2.4017077437        1.4910179435        1.3652694605
 C         -2.6948589875        2.9001677173        1.8023183481
 C         -1.9136778595        3.9572106870        1.0091131423
 C         -2.4174275841        4.2055770380       -0.4134081562
 H         -3.4956765271        4.3710425126       -0.3962351092
 H         -1.9496448413        5.1292680684       -0.7604287441
 C         -2.0785828850        3.0845004306       -1.4061396130
 H         -1.2682885209        2.4723572779       -1.0019257822
 H         -1.7035444098        3.5243834191       -2.3340894590
 C         -3.2571425485        2.1840520763       -1.7780247963
 H         -2.8865370183        1.3935261247       -2.4359797436
 H         -4.0000974196        2.7643491636       -2.3310146444
 C         -3.9514501676        1.5178339748       -0.5838845073
 H         -4.5400554367        2.2516417913       -0.0335632187
 H         -4.6225810906        0.7456470539       -0.9688489109
 H         -0.8631675072        3.6574460985        0.9673941386
 H         -1.9743635194        4.8962723995        1.5647477613
 H         -2.4023760820        2.9697164545        2.8523271366
 H         -3.7643785760        3.0983428732        1.7245567610
 O         -1.4770038410        0.9053889323        2.1694245085
 C         -1.0170929827       -0.3747877828        1.9099657247
 O         -0.1223975297       -0.7634028397        2.6906017741
 O         -3.0551611394       -1.1155566533       -0.9896823185
 C         -0.9844928125       -2.4548778442        0.5327069100
 C         -0.2550993417       -2.3025483413       -0.7813845988
 C         -0.5451312555       -3.0194296659       -1.9326510958
 C          0.0974443467       -2.7103440726       -3.1206726823
 C          1.0139490776       -1.6777529556       -3.1882539981
 C          1.3266735404       -0.9673247514       -2.0322496098
 C          0.7200541800       -1.3132689602       -0.8384342264
 H          0.9585481530       -0.7648668275        0.0592091146
 N          2.2543225661        0.0804444126       -2.0589810368
 S          2.2694925118        1.3102160994       -0.9249234621
 O          0.9559740185        1.6104888691       -0.4082391954
 O          2.9478137726        2.3962938151       -1.6025496076
 C          3.3485966514        0.6757110321        0.3406018836
 C          4.6659488865        0.4549468980       -0.0153868086
 C          5.5445242213       -0.0444075061        0.9307833940
 C          5.0934471657       -0.3158862560        2.2144280267
 C          3.7706561008       -0.0866601659        2.5570872646
 C          2.8865047699        0.4162279809        1.6139486403
 H          1.8496476020        0.5908910462        1.8593959284
 H          3.4093417405       -0.2998748638        3.5505353960
 H          5.7752819057       -0.7072464880        2.9529261413
 H          6.5746681424       -0.2219357196        0.6671522455
 H          4.9753447329        0.6885014760       -1.0204446650
 H          2.5389049058        0.3892400348       -2.9757719110
 H          1.4810715269       -1.4152465626       -4.1251642276
 H         -0.1402746398       -3.2666880926       -4.0148523397
 H         -1.2874699931       -3.7999424270       -1.9085564238
 H         -0.2448475922       -2.6606047590        1.3194643605
 C         -2.0328157002       -3.5441542947        0.5419665744
 C         -1.6214878135       -4.9705973579        0.7461330029
 C         -2.3497281716       -4.2377702444        1.8314402065
 H         -3.3766543712       -4.5013943617        2.0351302887
 H         -1.7952660174       -3.9357054008        2.7081423276
 H         -2.1494121146       -5.7420141124        0.2064058268
 H         -0.5704046137       -5.1713903749        0.8880680423
 H         -2.8573633031       -3.3385400862       -0.1297392603
