  62
        -98.93733183
 C          2.2814099202        0.9052481114        0.6846852569
 C          3.0220331550       -0.1810299674        1.2182662892
 C          4.3981731000       -0.3317370183        0.7369174993
 C          4.8933548537        0.5552557539       -0.1450353255
 C          6.2871050340        0.5586259314       -0.7117089134
 C          6.4721927054       -0.3716736628       -1.9183541364
 C          6.4849611507       -1.8655871119       -1.5919989693
 H          6.8380578216       -2.3854515701       -2.4847886969
 H          7.2069326994       -2.0567684032       -0.7974603861
 C          5.1170908435       -2.4393070998       -1.1963449876
 H          4.3283281415       -1.7494944175       -1.5053652643
 H          4.9473715464       -3.3775685893       -1.7292653184
 C          4.9591920458       -2.7322090601        0.2958460650
 H          5.6541773249       -3.5217192010        0.5905480480
 H          3.9428855701       -3.0964814648        0.4676663302
 C          5.1861220877       -1.5174607619        1.2052611927
 H          4.8398438119       -1.7712075972        2.2102753873
 H          6.2476684729       -1.2750996153        1.2519326362
 H          5.6822989076       -0.1640946488       -2.6437338909
 H          7.4267719279       -0.1152501800       -2.3835216565
 H          6.4895395172        1.5827698109       -1.0323580884
 H          7.0002664996        0.2912405821        0.0685536646
 O          4.1603004327        1.5936432107       -0.6210415931
 C          2.8331726561        1.7845523673       -0.2487297317
 O          2.2939942259        2.7522766840       -0.8129231049
 O          2.5510859791       -0.9835823407        2.0699082330
 C          0.8565652259        1.0552743901        1.1835506134
 C         -0.1244428024        0.3222239568        0.3072916576
 C         -0.1385412939        0.4896302915       -1.0741188125
 C         -1.0894130120       -0.1476750410       -1.8511638883
 C         -2.0526390047       -0.9520961761       -1.2656469843
 C         -2.0359020265       -1.1361489416        0.1090189582
 C         -1.0716029709       -0.5108816185        0.8845598618
 H         -1.0690468524       -0.6625005937        1.9558287956
 N         -3.0718871607       -1.9088998851        0.7070401968
 S         -4.3448194379       -0.9088929219        1.1932538804
 O         -3.8559458721        0.2084884473        1.9729200941
 O         -5.2983103950       -1.7686432697        1.8574996921
 C         -4.9899639486       -0.3336038303       -0.3582145190
 C         -5.8487351276       -1.1508618191       -1.0666341222
 C         -6.3144762424       -0.7210313785       -2.2989070015
 C         -5.9105543609        0.5079183727       -2.7993744480
 C         -5.0481028348        1.3164725554       -2.0744678961
 C         -4.5801656953        0.8938964947       -0.8403867841
 H         -3.9090258190        1.4914878855       -0.2438802293
 H         -4.7339513641        2.2710425678       -2.4649704529
 H         -6.2707866949        0.8394236677       -3.7605157506
 H         -6.9873018388       -1.3445719766       -2.8653270804
 H         -6.1365955862       -2.0957688028       -0.6362518192
 H         -2.7517577167       -2.4223326002        1.5183635825
 H         -2.8057765003       -1.4435606289       -1.8596010372
 H         -1.0880445182       -0.0063551260       -2.9209319342
 H          0.5977775037        1.1366912386       -1.5273440163
 H          0.8537010493        0.5540183105        2.1653977118
 C          0.4363177342        2.4994069015        1.4230068966
 C         -0.5115852270        3.2504103739        0.5420470824
 C         -0.9514074594        2.8100113551        1.9041731892
 H         -1.0737582623        3.5556753081        2.6755725677
 H         -1.6614810928        1.9967651378        1.9687734496
 H         -0.3085309247        4.2963619597        0.3707356659
 H         -0.9226644766        2.7436011290       -0.3164465966
 H          1.2416007095        3.0810065549        1.8612445703
