  62
        -98.93191727
 C         -2.2987771723       -0.8184878604       -0.2808119693
 C         -3.6180704502       -1.2334170297        0.0350292974
 C         -4.7008588756       -0.3479272205       -0.4025950056
 C         -4.4059242174        0.7754221237       -1.0812571197
 C         -5.3975967646        1.7711260801       -1.6194200256
 C         -5.8638510581        2.8078362469       -0.5879864075
 C         -6.8110327975        2.2751131602        0.4879095263
 H         -7.2283844267        3.1415695100        1.0047203464
 H         -7.6396137850        1.7493030534        0.0126036107
 C         -6.1425228800        1.3586238292        1.5221487451
 H         -5.0586425169        1.4886509553        1.4777199561
 H         -6.4587386348        1.6505255045        2.5261300382
 C         -6.4691013442       -0.1257674826        1.3581157643
 H         -5.9145134783       -0.6845504075        2.1161834764
 H         -7.5350067280       -0.2885479181        1.5321472214
 C         -6.1048567545       -0.7035499196       -0.0157373326
 H         -6.8076415649       -0.3516003644       -0.7705214154
 H         -6.1678152331       -1.7928524873        0.0421254612
 H         -4.9835571097        3.2477575324       -0.1136836245
 H         -6.3786686161        3.6014157899       -1.1344372780
 H         -4.8967854867        2.2973561481       -2.4348404744
 H         -6.2620793038        1.2442258349       -2.0243826018
 O         -3.1300496785        1.1322182939       -1.3804969769
 C         -2.0426112556        0.3609425942       -0.9811139503
 O         -0.9452240687        0.8419435004       -1.3143175557
 O         -3.8771531158       -2.2998063407        0.6555083225
 C         -1.1627998654       -1.7264179450        0.1750503257
 C         -0.1535078195       -0.9476737188        0.9775718374
 C         -0.4412372176       -0.7511234435        2.3294962706
 C          0.4047797657       -0.0285488146        3.1471214298
 C          1.5820083450        0.4971552475        2.6444246707
 C          1.8757583073        0.3191992267        1.2994096066
 C          1.0067699601       -0.3829637416        0.4736091935
 H          1.2605649502       -0.4497855929       -0.5682476418
 N          3.0524639189        0.8448040627        0.7417481681
 S          3.8480684688       -0.0957290246       -0.4132495097
 O          3.3685858024        0.2524369944       -1.7264290730
 O          3.7616964693       -1.4912350303       -0.0458058127
 C          5.5233746878        0.4858266720       -0.2171431954
 C          6.3905059785       -0.2141957281        0.6004719899
 C          7.6822648612        0.2590870903        0.7693542329
 C          8.0820601561        1.4195954375        0.1239383187
 C          7.2005622950        2.1114728633       -0.6935989973
 C          5.9079979285        1.6429829951       -0.8679375336
 H          5.1907669478        2.1403236802       -1.5002823097
 H          7.5155004322        3.0117281454       -1.1962096554
 H          9.0878442457        1.7858360968        0.2563023163
 H          8.3706293377       -0.2784360604        1.4013801726
 H          6.0379937134       -1.1162965265        1.0741595405
 H          3.6886052861        1.2176518625        1.4328811858
 H          2.2570484637        1.0481198337        3.2816845259
 H          0.1553820349        0.1127236344        4.1879828958
 H         -1.3524786823       -1.1719632212        2.7326204606
 H         -1.6515708386       -2.4147519262        0.8841360183
 C         -0.7021861216       -2.6175060806       -0.9721251204
 C          0.0573426222       -2.1755333630       -2.1856338195
 C          0.6999304120       -3.0985291911       -1.1927170384
 H          0.8390922707       -4.1308384639       -1.4797461009
 H          1.4940567658       -2.7110232318       -0.5728858276
 H         -0.2466077171       -2.5823012816       -3.1405341857
 H          0.3883399099       -1.1511790922       -2.2515549992
 H         -1.4792263775       -3.3512754913       -1.1781496069
