  62
        -98.93126300
 C         -2.2476334605       -0.9183477791       -0.2824887600
 C         -3.6198456305       -1.2451944190       -0.1374193802
 C         -4.5794650404       -0.2162731091       -0.5480413207
 C         -4.1295197103        0.9514562407       -1.0416839210
 C         -4.9807459302        2.0921587005       -1.5307409816
 C         -5.4733003703        3.0286581409       -0.4187737120
 C         -6.5660632805        2.4519694813        0.4822922280
 H         -6.9688595606        3.2810786415        1.0673473377
 H         -7.3771392704        2.0648589511       -0.1351114220
 C         -6.0811961507        1.3585510016        1.4444634685
 H         -4.9918875807        1.3970927716        1.5198264987
 H         -6.4779545709        1.5504142520        2.4439178284
 C         -6.4997987207       -0.0590267285        1.0546234389
 H         -7.5872389507       -0.1473161985        1.1048575588
 H         -6.0710408508       -0.7550895283        1.7799062592
 C         -6.0392695304       -0.4898625890       -0.3439071808
 H         -6.6303340603        0.0155188707       -1.1072345811
 H         -6.1910295705       -1.5677907690       -0.4383416605
 H         -5.8661110002        3.9267559508       -0.9010818223
 H         -4.6169145404        3.3267019511        0.1906710581
 H         -4.3583498900        2.6703886803       -2.2170825416
 H         -5.8353699901        1.6997904604       -2.0828151216
 O         -2.8052007902        1.2251667106       -1.1762043709
 C         -1.8285098503        0.3095104507       -0.7954191604
 O         -0.6661644203        0.7200662606       -0.9671757403
 O         -4.0218174206       -2.3511614388        0.3142023702
 C         -1.2349671506       -1.9788630990        0.1338544405
 C         -0.1878196307       -1.3689687787        1.0292524505
 C         -0.5597574309       -1.1558903182        2.3573908704
 C          0.2998350789       -0.5557895779        3.2554474703
 C          1.5604300690       -0.1539764881        2.8521240504
 C          1.9487396192       -0.3632242586        1.5347572005
 C          1.0790115894       -0.9665769189        0.6350504406
 H          1.4072128296       -1.0645906192       -0.3812859893
 N          3.2519912793       -0.0145574688        1.1285044406
 S          3.5903909596        0.7044332307       -0.3596584795
 O          3.1083480496        2.0689528307       -0.3814776501
 O          3.1703407898       -0.1590856396       -1.4310150993
 C          5.3725437196        0.7004613207       -0.2615985792
 C          6.0489871296        1.8600445408        0.0642928705
 C          7.4316759495        1.8267059208        0.1594980307
 C          8.1106689395        0.6396653307       -0.0689389587
 C          7.4180974796       -0.5167661094       -0.3961727484
 C          6.0362290896       -0.4891414994       -0.4937661487
 H          5.4566724296       -1.3595935695       -0.7533488285
 H          7.9492953096       -1.4375835695       -0.5755779080
 H          9.1863834095        0.6159431207        0.0057712415
 H          7.9726304195        2.7248508009        0.4105747505
 H          5.4799935095        2.7617430109        0.2248576001
 H          3.7346073092        0.5118546215        1.8460640405
 H          2.2361435089        0.3186643521        3.5492757503
 H         -0.0136683213       -0.3952514676        4.2760970602
 H         -1.5485903410       -1.4580156881        2.6754775703
 H         -1.8207005307       -2.6661171987        0.7669332807
 C         -0.8413821204       -2.8124250594       -1.0785713791
 C          0.0564489798       -2.3781937698       -2.1960331491
 C          0.4829347396       -3.4840916295       -1.2755709386
 H          0.4863755197       -4.4924789597       -1.6624005983
 H          1.2690200695       -3.2833097193       -0.5655448086
 H         -0.2407416100       -2.6392607902       -3.2025648491
 H          0.5399760499       -1.4154849198       -2.1393213594
 H         -1.7080614103       -3.3879650395       -1.3978029191
