  62
        -98.94946157
 C          1.0206460217        1.6929949096       -0.2866113202
 C          2.3089784515        1.5420047987        0.2748644802
 C          3.0901635408        0.4010557682       -0.2144203098
 C          2.5612412305       -0.4216777613       -1.1380263101
 C          3.2217960199       -1.6444353816       -1.7149036001
 C          3.0833677288       -2.8916159317       -0.8300218103
 C          3.9729342884       -2.9083310425        0.4137240399
 H          5.0001137887       -2.6704437231        0.1337310102
 H          3.9660293676       -3.9307272425        0.7971920897
 C          3.5058999688       -1.9656934023        1.5316468999
 H          3.5536028382       -2.4893829225        2.4898886099
 H          2.4561074890       -1.7049977016        1.3731234097
 C          4.3336420296       -0.6881286229        1.6759934603
 H          5.3447445094       -0.9439668037        2.0025879506
 H          3.8746794798       -0.0714927327        2.4532030503
 C          4.4354157605        0.1556701972        0.3994327305
 H          5.0980414404       -0.3279424131       -0.3182344794
 H          4.8584223711        1.1274244769        0.6677216808
 H          3.3335805883       -3.7601784318       -1.4441929704
 H          2.0408173186       -2.9914902510       -0.5155838406
 H          4.2777993700       -1.4435979423       -1.8987321298
 H          2.7339457000       -1.8414224712       -2.6720010603
 O          1.3324446808       -0.2208198604       -1.6823747604
 C          0.5217866214        0.8202000601       -1.2541565104
 O         -0.5935284084        0.8655749810       -1.8060217307
 O          2.7816450618        2.3211445082        1.1479695804
 C          0.1101075024        2.7874819202        0.2319323898
 C         -1.1758896682        2.2054629310        0.7701890193
 C         -2.3666559377        2.9233784218        0.7935974391
 C         -3.5220987082        2.3524366525        1.2975020188
 C         -3.5266606292        1.0485609624        1.7596375386
 C         -2.3421710697        0.3224960416        1.7387348188
 C         -1.1782958192        0.9138089909        1.2771991491
 H         -0.2667760896        0.3358609503        1.2904875593
 N         -2.2891091207       -1.0158417685        2.1713088686
 S         -1.5160428312       -2.1388002289        1.2035211686
 O         -1.9869768422       -3.4162314786        1.7031495083
 O         -0.0877509511       -1.9497252199        1.2459117890
 C         -2.1239315707       -1.9182895682       -0.4593176715
 C         -3.4497033304       -1.5953037273       -0.6684113218
 C         -3.9128511200       -1.4736405968       -1.9678300119
 C         -3.0515858898       -1.6864579972       -3.0324118717
 C         -1.7276645701       -2.0236389281       -2.8067009915
 C         -1.2587435405       -2.1404798286       -1.5089149113
 H         -0.2297830208       -2.3811462994       -1.2947875311
 H         -1.0530049200       -2.1830102184       -3.6325439013
 H         -3.4124706495       -1.5853620168       -4.0438913318
 H         -4.9429193197       -1.2090684460       -2.1455621922
 H         -4.1062085805       -1.4377205370        0.1713658680
 H         -3.1642206011       -1.3861494180        2.5138006883
 H         -4.4332595496        0.5983357229        2.1347083182
 H         -4.4367940978        2.9249434931        1.3147289786
 H         -2.3879649569        3.9320643618        0.4141943593
 H          0.6556802725        3.2556428597        1.0659282400
 C         -0.1313772167        3.8345331705       -0.8386536801
 C         -0.2544794758        5.2842932305       -0.4781747599
 C          0.9738738741        4.7880152498       -1.1776856997
 H          1.1265308145        5.0548990599       -2.2125586596
 H          1.8887841239        4.7035649191       -0.6093023395
 H         -0.9465282352        5.8969512811       -1.0361964400
 H         -0.1650334559        5.5524388303        0.5638891801
 H         -0.7338637667        3.4553182110       -1.6564003603
