  62
        -98.94822972
 C         -1.3093682503       -1.1738737300       -0.0309120605
 C         -2.0742559199       -0.5960343507        1.0100325501
 C         -2.6320083196        0.7347729997        0.7377551014
 C         -2.3666812997        1.3309383507       -0.4388585781
 C         -2.9010432594        2.6672230412       -0.8638981868
 C         -4.2310083996        2.5207303522       -1.6167390767
 C         -5.2514706097        1.6358086519       -0.9010389272
 H         -6.1594769898        1.6299610027       -1.5076904171
 H         -4.8764523600        0.6102630117       -0.8723714882
 C         -5.5932574093        2.0879907507        0.5254693532
 H         -5.2933880990        3.1269104505        0.6674748341
 H         -6.6761458593        2.0417067409        0.6583265234
 C         -4.9731279293        1.2283523095        1.6286705423
 H         -5.4460593291        1.4974770588        2.5769498327
 H         -5.1941575496        0.1745825198        1.4405868914
 C         -3.4577180292        1.3752661289        1.8172087222
 H         -3.1976715589        2.4308843188        1.9242298930
 H         -3.1845778192        0.8639673180        2.7454134116
 H         -4.0270634599        2.0838940930       -2.5968641871
 H         -4.6525357894        3.5159878825       -1.7684949057
 H         -3.0340970591        3.2940455204        0.0159021038
 H         -2.1684760594        3.1365096616       -1.5228774665
 O         -1.6098532701        0.7554731113       -1.4065838588
 C         -1.0628234504       -0.5099791590       -1.2314704800
 O         -0.3917989407       -0.9140070983       -2.1990829005
 H          0.7932575201       -0.7629033919        1.5199275294
 C          1.4144358498       -1.4184129416        0.9259262887
 C          0.8252045194       -2.4153325907        0.1562558379
 C          1.6468982890       -3.2537535903       -0.5856985230
 C          3.0204867891       -3.0831721407       -0.5676988331
 C          3.6000812295       -2.0756525315        0.1805796277
 C          2.7879784199       -1.2363558620        0.9356661486
 N          3.3480684903       -0.2125963828        1.7250467694
 S          2.7965811907        1.3568375975        1.5512858109
 O          3.7430427811        2.1584923466        2.2961159014
 O          1.4181567708        1.4504599075        1.9585625512
 C          2.9583909904        1.6942474090       -0.1899562288
 C          4.1399222805        2.2218010791       -0.6738576386
 C          4.2781860203        2.4071379703       -2.0399075485
 C          3.2461523300        2.0490165113       -2.8953089186
 C          2.0680155099        1.5175345912       -2.3939266788
 C          1.9216212602        1.3409958900       -1.0278586290
 H          1.0178794301        0.9315579399       -0.6058158591
 H          1.2607115297        1.2195117420       -3.0445476589
 H          3.3580048398        2.1847736822       -3.9594746285
 H          5.1907182603        2.8238366704       -2.4349155383
 H          4.9149630007        2.4875149983        0.0268290015
 H          4.3587549003       -0.2150352431        1.7345578292
 H          4.6708149595       -1.9393753418        0.1878718176
 H          3.6472219588       -3.7397832703       -1.1514661738
 H          1.2122494387       -4.0394872997       -1.1809991536
 C         -0.6793867106       -2.5372953704        0.1880060181
 H         -0.9719730705       -2.8313659012        1.2075104879
 C         -1.2334466111       -3.5511040293       -0.7904205827
 C         -1.2920680214       -5.0022275596       -0.4205414440
 C         -2.5528681912       -4.1959568992       -0.4930015130
 H         -3.2357546514       -4.3742530883       -1.3100710330
 H         -3.0413272410       -3.9228158599        0.4313008774
 H         -1.1123523618       -5.7386401190       -1.1891090147
 H         -0.9278358013       -5.2841774006        0.5557935957
 H         -1.0267713713       -3.2910528985       -1.8221944725
 O         -2.2807999699       -1.1693222016        2.1146508597
