  62
        -98.93677292
 C         -2.5498088007       -1.2418147705        0.2267555707
 C         -2.7258138109       -0.3642542408       -0.8680437096
 C         -3.8432209111        0.5955148190       -0.7690016199
 C         -4.6240371410        0.5900448192        0.3244209501
 C         -5.7754770512        1.5044350291        0.6387674599
 C         -5.3055579514        2.7061255994        1.4757785195
 C         -4.7969897216        3.8964330493        0.6635742091
 H         -5.6416412417        4.3800274090        0.1683551190
 H         -4.3755110217        4.6157065896        1.3694513189
 C         -3.7378974116        3.5635868291       -0.3905785408
 H         -3.2009886617        4.4840790992       -0.6280374911
 H         -3.0105600114        2.8642068594        0.0261163694
 C         -4.3346359815        2.9894853086       -1.6843088206
 H         -5.4138109415        3.1411869585       -1.6769166206
 H         -3.9501933616        3.5498301084       -2.5392556908
 C         -4.0233390412        1.5092890286       -1.9512247601
 H         -3.0842362312        1.4312745186       -2.5081180801
 H         -4.8024948112        1.0919718183       -2.5979930000
 H         -6.1377738214        3.0492104095        2.0936545094
 H         -4.5195330713        2.3571721598        2.1503786896
 H         -6.4802011211        0.9206252992        1.2346231201
 H         -6.2710968013        1.8279223587       -0.2716525402
 O         -4.4192407608       -0.2682859504        1.3601855104
 C         -3.3960279407       -1.1928648803        1.3404719007
 O         -3.3417396205       -1.9156877999        2.3551286509
 O         -1.9960145809       -0.3549716110       -1.8976807696
 C         -1.4719361705       -2.3138900903        0.2844679910
 C         -0.1177873306       -1.7486453999        0.6432233808
 C          0.5382658795       -2.1564827494        1.7987845209
 C          1.7950046794       -1.6653272691        2.1063733307
 C          2.4215301492       -0.7576666393        1.2712702404
 C          1.7726294091       -0.3402888097        0.1166897103
 C          0.5148446392       -0.8382985001       -0.1912966395
 H          0.0132940691       -0.5090324204       -1.0895234496
 N          2.3934289889        0.5967755401       -0.7308918000
 S          3.9248743490        0.2167489302       -1.3086552200
 O          4.0699575588        0.9699301298       -2.5352228602
 O          4.1137168792       -1.2125337098       -1.4060855595
 C          5.0257551289        0.8921155508       -0.0826029002
 C          5.9509873691        0.0744692711        0.5361823100
 C          6.8066318890        0.6239022816        1.4784431898
 C          6.7227114488        1.9739494116        1.7827153094
 C          5.7893594386        2.7820991013        1.1504095692
 C          4.9319095487        2.2393865708        0.2067922794
 H          4.1956502486        2.8324286506       -0.3097419508
 H          5.7272518084        3.8315251513        1.3897127689
 H          7.3887841287        2.3991871920        2.5167846493
 H          7.5331768591       -0.0025080882        1.9705819500
 H          5.9755552292       -0.9704614490        0.2710693404
 H          1.7981075389        0.8931052098       -1.4918177701
 H          3.4005568592       -0.3724012490        1.5056171302
 H          2.2922982795       -1.9921895788        3.0067843008
 H          0.0516216496       -2.8579759193        2.4609466911
 H         -1.7761202704       -2.9870631501        1.0971244612
 C         -1.3812534704       -3.1253460906       -0.9948819388
 C         -0.7809047902       -4.4964785305       -0.9440407684
 C         -2.2541487002       -4.3302931508       -1.1645426184
 H         -2.6586842902       -4.5391599912       -2.1435554283
 H         -2.9226155301       -4.5808482707       -0.3534660683
 H         -0.1680545101       -4.8206470507       -1.7712320083
 H         -0.4507712801       -4.8626137902        0.0163384817
 H         -1.1888705305       -2.5244944909       -1.8740374290
