  62
        -98.93905465
 C         -2.4710330219       -0.9985536934        0.3685775584
 C         -2.7609157217        0.1776705947        1.1106722052
 C         -4.1014750396        0.7459046963        0.9393899701
 C         -4.9851921866        0.1310139204        0.1330064910
 C         -6.4030739189        0.5632120208       -0.1249706431
 C         -6.5402013490        1.6431371772       -1.2068469987
 C         -6.0690877221        3.0386155044       -0.7958410020
 H         -6.4222885005        3.7338820064       -1.5599035696
 H         -6.5443436717        3.3191967962        0.1445490139
 C         -4.5458326423        3.1800033850       -0.6670659269
 H         -4.0567763434        2.3470944113       -1.1778164394
 H         -4.2210923240        4.0954911418       -1.1666215134
 C         -4.0331403237        3.2447717976        0.7717987070
 H         -4.4084176922        4.1497118734        1.2549625960
 H         -2.9418270280        3.3048995099        0.7447592226
 C         -4.4184280214        2.0356697534        1.6341131371
 H         -5.4765928004        2.0786949181        1.8916692509
 H         -3.8310725576        2.0698940763        2.5550464072
 H         -7.5977705144        1.7039896000       -1.4735216631
 H         -5.9911566279        1.3200817483       -2.0942090457
 H         -6.9429971622       -0.3264881755       -0.4558416274
 H         -6.8517575898        0.9173441231        0.8035307996
 O         -4.6803589062       -1.0050950172       -0.5437333145
 C         -3.4218087682       -1.5860645589       -0.4669142232
 O         -3.3084790352       -2.6030477644       -1.1793737956
 O         -1.9357334424        0.7227546914        1.8930355705
 C         -1.0805765444       -1.5823633527        0.5434640366
 C         -0.1442892245       -1.1979256501       -0.5779254471
 C         -0.3893523801       -1.5712185277       -1.8955326884
 C          0.5113413737       -1.2445112616       -2.8925758902
 C          1.6791562082       -0.5640461364       -2.5956398575
 C          1.9296047753       -0.1808047225       -1.2834102670
 C          1.0127976581       -0.4898290411       -0.2881712885
 H          1.2160181453       -0.1749037378        0.7252594580
 N          3.0958947621        0.5257430265       -0.9502407252
 S          3.8151764690        0.2127825651        0.5459697925
 O          3.7901767504       -1.2061931251        0.8196003133
 O          3.2117019387        1.0653842714        1.5393552113
 C          5.4847103841        0.7500834265        0.2236121532
 C          5.7777408951        2.0986859548        0.3011295605
 C          7.0674372743        2.5205779359        0.0196408046
 C          8.0366169234        1.5930361317       -0.3332124893
 C          7.7279875368        0.2429110691       -0.4047225806
 C          6.4397712111       -0.1859227012       -0.1258315557
 H          6.1555194633       -1.2253893598       -0.1601776041
 H          8.4844551960       -0.4759883725       -0.6752771885
 H          9.0397994177        1.9242802564       -0.5502600637
 H          7.3119480256        3.5689632219        0.0773988293
 H          4.9946065093        2.7808576521        0.5886634905
 H          3.7738819217        0.5443942870       -1.6997831259
 H          2.3883761874       -0.3257389850       -3.3738009464
 H          0.3088701213       -1.5376369734       -3.9117929378
 H         -1.2913012331       -2.1164449736       -2.1270501036
 H         -0.6913173048       -1.1214636792        1.4624371200
 C         -1.0665825676       -3.0891267678        0.7247803340
 C          0.1670977941       -3.7331358424        1.2803709682
 C         -1.0815056066       -3.6655918414        2.1067692520
 H         -1.6361724453       -4.5757553595        2.2790410386
 H         -1.1064266876       -2.9744458183        2.9369612060
 H          0.4693655972       -4.6906278646        0.8845462033
 H          0.9940747462       -3.0888365448        1.5434953783
 H         -1.6096217562       -3.6201623764       -0.0460224527
