  62
        -98.93099687
 C         -2.4389834050       -0.8373061259        0.0648249923
 C         -2.9146087516        0.2769122257        0.8022704336
 C         -4.1048285644        0.9595360865        0.2763147870
 C         -4.6584306222        0.5142577611       -0.8659645992
 C         -5.9166357282        1.0447721583       -1.4924483665
 C         -7.1479106656        0.5088960045       -0.7342748842
 C         -7.9593748139        1.5832001016       -0.0098867954
 H         -8.6591648410        1.0718825291        0.6546420933
 H         -8.5478127901        2.1383473988       -0.7434507764
 C         -7.1490228506        2.5967689829        0.8038498927
 H         -7.8539093274        3.1164136327        1.4563910699
 H         -6.7288619030        3.3510340277        0.1369491685
 C         -6.0179547706        2.0172141208        1.6633456447
 H         -6.2122663677        0.9709918739        1.9007760428
 H         -5.9995948808        2.5594466242        2.6109754826
 C         -4.6126498606        2.1471107225        1.0462968543
 H         -3.8878245565        2.2862432829        1.8538944149
 H         -4.5728553581        3.0376544734        0.4129463779
 H         -6.8078676074       -0.2389960995       -0.0147539814
 H         -7.8094842535       -0.0062398266       -1.4323724136
 H         -5.9314528755        0.7057238681       -2.5284102381
 H         -5.9028248410        2.1323134098       -1.4811366841
 O         -4.1664167633       -0.5450904895       -1.5555032537
 C         -3.0494480403       -1.2502209651       -1.1201868911
 O         -2.7312137556       -2.1891156761       -1.8707377322
 O         -2.3660537863        0.6771038623        1.8653503691
 C         -1.2273256361       -1.5548444715        0.6319639289
 C          0.0544760454       -1.0034016687        0.0618171620
 C          0.2514425216       -0.8953304307       -1.3112651343
 C          1.4444590368       -0.4048095739       -1.8102919342
 C          2.4598412541       -0.0091162567       -0.9568923560
 C          2.2727374458       -0.1085476569        0.4148422725
 C          1.0744765905       -0.6046437577        0.9132102660
 H          0.9282124550       -0.6702174559        1.9832560315
 N          3.2956107746        0.3044728328        1.2845933508
 S          4.8426027232       -0.3009070675        1.0360775319
 O          4.8010040213       -1.6037092792        0.4140764200
 O          5.4888146306       -0.2236251962        2.3277359210
 C          5.5968216761        0.8794781993       -0.0622610640
 C          6.1330946902        0.4564836787       -1.2626429253
 C          6.7257038660        1.3907159180       -2.0979743103
 C          6.7718431883        2.7237090457       -1.7194853438
 C          6.2307384497        3.1317541024       -0.5092447027
 C          5.6380875302        2.2028357945        0.3309316070
 H          5.2104729540        2.4786594795        1.2804068221
 H          6.2688553541        4.1692601122       -0.2185782324
 H          7.2326556595        3.4489679709       -2.3714102045
 H          7.1473322177        1.0754279868       -3.0388800661
 H          6.0696966517       -0.5894792423       -1.5176774895
 H          3.0444180008        0.2606854401        2.2617374496
 H          3.3897421746        0.3743274583       -1.3437751186
 H          1.5852897683       -0.3288001870       -2.8778797898
 H         -0.5372292397       -1.2066079665       -1.9795563427
 H         -1.2390849094       -1.3076706130        1.7057643857
 C         -1.3185268499       -3.0707601422        0.5222004809
 C         -0.4664936737       -3.8971110980       -0.3883883614
 C         -0.2278737090       -3.9311779753        1.0895495758
 H         -0.4999099049       -4.8179030537        1.6417859977
 H          0.6572319437       -3.4345037609        1.4598155141
 H         -0.9268797170       -4.7495768338       -0.8636883818
 H          0.2596931440       -3.3958913044       -1.0083372678
 H         -2.3353139692       -3.4216199495        0.6683611003
