  62
        -98.93949657
 C         -1.7696200704       -1.5679334293        0.0521012381
 C         -1.5776833340       -0.1811969442       -0.1473398685
 C         -2.6824430636        0.6997205076        0.2777391275
 C         -3.8008915158        0.1581542301        0.7947245456
 C         -5.0638697072        0.7986424732        1.3325045815
 C         -5.3532273739        2.2779860025        1.0926068900
 C         -5.6527475035        2.6433701146       -0.3610710937
 H         -5.7392894816        3.7299963672       -0.4295402091
 H         -6.6211563862        2.2157733106       -0.6331669511
 C         -4.6314104425        2.1597853312       -1.3875713234
 H         -4.9769936256        2.4753580604       -2.3758557404
 H         -4.6035105751        1.0682594277       -1.3906886544
 C         -3.2126195052        2.6923110255       -1.1980521770
 H         -3.2339547807        3.7830398692       -1.1573873165
 H         -2.6315815071        2.4001776632       -2.0766371107
 C         -2.4703851422        2.1675094406        0.0427326015
 H         -2.7307216495        2.7394656016        0.9300530069
 H         -1.3971583119        2.2890886771       -0.1283010820
 H         -4.5429944525        2.8875857483        1.4813010327
 H         -6.2416635508        2.5203739766        1.6822460577
 H         -5.8923850984        0.2030748745        0.9356244302
 H         -5.0489678530        0.6194620904        2.4133543874
 O         -3.9394638720       -1.1915832631        0.9593219654
 C         -2.9392148875       -2.0797961811        0.6089572265
 O         -3.2066537783       -3.2767188534        0.8392259585
 H          1.7836819015       -1.7848922231       -1.3473522988
 C          1.7488830962       -1.7715511942       -0.2695205606
 C          0.5931155470       -2.1515656036        0.3917580762
 C          0.5821479090       -2.1192158544        1.7839277638
 C          1.6954703479       -1.7089714579        2.4914344997
 C          2.8441472479       -1.3150609807        1.8264604274
 C          2.8643570632       -1.3426384311        0.4391841209
 N          4.0253401395       -0.9399056354       -0.2496419324
 S          4.6445755475        0.5849038958        0.0584937531
 O          5.6137734395        0.8119194827       -0.9899858880
 O          5.1479338730        0.6262259402        1.4084324488
 C          3.2781456970        1.7154185347       -0.1213198858
 C          2.4990391243        2.0221725628        0.9752616222
 C          1.4257627736        2.8822438079        0.8118418050
 C          1.1507294716        3.4157755392       -0.4370842614
 C          1.9378590692        3.0907240547       -1.5302596574
 C          3.0103538215        2.2290800006       -1.3741831790
 H          3.6537024251        1.9591664571       -2.1965611249
 H          1.7155402944        3.5025115171       -2.5017530229
 H          0.3167058578        4.0891873846       -0.5602232985
 H          0.8046608791        3.1290710055        1.6582995139
 H          2.7465449732        1.5931213274        1.9324999385
 H          3.9607838829       -1.0774621850       -1.2485574435
 H          3.7168767459       -0.9761880764        2.3608631266
 H          1.6700945722       -1.6906927380        3.5707693398
 H         -0.3207532677       -2.4118587024        2.3033833656
 C         -0.6723521958       -2.5469109890       -0.3279957116
 H         -0.9935014309       -3.5287353131        0.0471164556
 C         -0.5316396624       -2.6215137032       -1.8336447633
 C          0.0834418531       -3.8306553596       -2.4704750350
 C         -1.3895212904       -3.5842327499       -2.5956905908
 H         -1.7824702415       -3.2781169880       -3.5537002313
 H         -2.0659013583       -4.2049108082       -2.0261367043
 H          0.4107733475       -4.6262405538       -1.8183475125
 H          0.7001776462       -3.6979744841       -3.3467010159
 H         -0.3490482993       -1.6536635409       -2.2865402652
 O         -0.5334800608        0.3074769725       -0.6501510867
