  62
        -98.93956415
 C         -2.6581466834       -1.2759474793       -0.0384323378
 C         -2.7062576581       -0.1956685173       -0.9523253161
 C         -4.0176448824        0.4464580575       -1.1063929781
 C         -5.0778418250       -0.0211472876       -0.4228181744
 C         -6.4805771077        0.5195857609       -0.4862888558
 C         -6.7268862271        1.7200804574        0.4379919460
 C         -6.0769050256        3.0302874191       -0.0087925410
 H         -6.3492351101        3.2352037047       -1.0445604947
 H         -6.5056793547        3.8255231720        0.6042747037
 C         -4.5491901911        3.0631488728        0.1398644398
 H         -4.2475481624        4.0065573682        0.6006023709
 H         -4.2300186287        2.2643238144        0.8135156344
 C         -3.7805369242        2.9359199664       -1.1755117846
 H         -3.9857818789        3.8045631342       -1.8051348490
 H         -2.7113958515        2.9289257300       -0.9472076294
 C         -4.1024167660        1.6657502209       -1.9737473532
 H         -5.0900780141        1.7453300124       -2.4271532602
 H         -3.3579891870        1.5619133924       -2.7667619397
 H         -6.3791110138        1.4651012254        1.4418425505
 H         -7.8070640439        1.8747460353        0.4902201093
 H         -6.7222396061        0.7937827438       -1.5134214444
 H         -7.1415756579       -0.2931797419       -0.1777723677
 O         -4.9951201790       -1.0847920089        0.4209999957
 C         -3.7842480456       -1.7159816598        0.6562946942
 O         -3.8404132695       -2.6429088360        1.4904907757
 H          1.2014396911       -1.3516696178       -0.6679975427
 C          0.9035682580       -0.7665883719        0.1881064823
 C         -0.3435355113       -0.9624597134        0.7574076979
 C         -0.6953523339       -0.1964749536        1.8661128590
 C          0.1711485073        0.7508625790        2.3748956981
 C          1.4077535533        0.9599879911        1.7889881083
 C          1.7731536390        0.1962311664        0.6897684996
 N          3.0164298640        0.4135419440        0.0663663125
 S          4.3846708133        0.5673606771        1.0431327135
 O          4.4850747321       -0.5610272324        1.9431858207
 O          4.3668630484        1.8670832146        1.6651042850
 C          5.6724633359        0.5041625594       -0.1864435393
 C          6.3770303976       -0.6683513442       -0.3811848842
 C          7.3582416069       -0.7053234599       -1.3597269996
 C          7.6137100594        0.4231527263       -2.1240292504
 C          6.8976071171        1.5929582228       -1.9165039467
 C          5.9165389113        1.6373511562       -0.9390682644
 H          5.3409309100        2.5255326374       -0.7372474189
 H          7.1006689393        2.4686070325       -2.5117303315
 H          8.3777341904        0.3916909428       -2.8847585908
 H          7.9185390300       -1.6120645261       -1.5219737690
 H          6.1498063939       -1.5190603328        0.2411894268
 H          3.1863484868       -0.2554063737       -0.6729182379
 H          2.0913754425        1.6983633588        2.1749517989
 H         -0.1177298795        1.3377452211        3.2343657378
 H         -1.6640113967       -0.3546677571        2.3221635000
 C         -1.3378928742       -1.9732666983        0.2376806698
 H         -1.5371384504       -2.6970584583        1.0413160626
 C         -0.8706798696       -2.7251266244       -0.9904994945
 C          0.0429571239       -3.9044349487       -0.8471594958
 C         -1.3908943753       -4.1089329385       -1.2318557977
 H         -1.6168030082       -4.4053725582       -2.2451117027
 H         -2.0675866548       -4.5191347020       -0.4963026266
 H          0.8005420513       -4.0664335082       -1.5991990069
 H          0.3453619363       -4.1834647305        0.1510908197
 H         -0.7477534869       -2.0802153584       -1.8529252314
 O         -1.7119999253        0.2117324890       -1.6067533396
