  62
        -98.93916594
 C          2.2328617963        0.1320363047        0.2885845524
 C          3.2736247388        0.7017962509       -0.4857381522
 C          4.4047778329       -0.1864209768       -0.7882942697
 C          4.3909549892       -1.4647995014       -0.3726347025
 C          5.4563377310       -2.4954764125       -0.6304168816
 C          6.6265333593       -2.4447294541        0.3616119584
 C          7.5736948902       -1.2563777623        0.1905995237
 H          8.4571318248       -1.4613961634        0.7985369523
 H          7.8994076598       -1.1996980163       -0.8484500816
 C          6.9810714367        0.0927238230        0.6209474648
 H          6.1032383105       -0.0784025707        1.2484054296
 H          7.7091407098        0.6323423369        1.2308378702
 C          6.5898999070        1.0115850366       -0.5364524149
 H          6.1478668431        1.9193679434       -0.1182458188
 H          7.4837507973        1.2981004184       -1.0949205008
 C          5.5784298354        0.3995978315       -1.5143000491
 H          6.0613809371       -0.3581987402       -2.1304669791
 H          5.2042420864        1.1946350219       -2.1635319365
 H          6.2231838156       -2.4465268115        1.3769504701
 H          7.2032013157       -3.3634675534        0.2318446022
 H          5.8343725737       -2.3857797288       -1.6471959059
 H          4.9719163506       -3.4702919008       -0.5420554532
 O          3.3574204822       -1.9864006926        0.3412216227
 C          2.2776274029       -1.2022090295        0.7060861788
 O          1.4281301561       -1.8014026066        1.3978738569
 O          3.2847582853        1.8852738838       -0.9150769529
 C          0.9994113984        0.9056381933        0.7266415557
 C         -0.0238824313        0.9950392079       -0.3807851383
 C          0.2181849071        1.7213251819       -1.5424672677
 C         -0.7507700331        1.8101561245       -2.5247129357
 C         -1.9803234434        1.1965724426       -2.3625616296
 C         -2.2270078683        0.4584002827       -1.2109508028
 C         -1.2466684340        0.3565211100       -0.2338133290
 H         -1.4482465125       -0.2293011420        0.6517599296
 N         -3.4543029279       -0.1985925662       -1.0297181438
 S         -4.0798254195       -0.3188390174        0.5330913889
 O         -3.8963122095        0.9301964033        1.2374358554
 O         -3.5363079047       -1.4953396924        1.1643359095
 C         -5.8070684766       -0.5743492993        0.1707821838
 C         -6.2350704272       -1.8457434001       -0.1622701555
 C         -7.5709856054       -2.0421121198       -0.4740851479
 C         -8.4513016365       -0.9703713521       -0.4487546874
 C         -8.0074442393        0.2992482881       -0.1108085728
 C         -6.6723295691        0.5030054816        0.2010446049
 H         -6.2833441237        1.4697306800        0.4777362127
 H         -8.6948338872        1.1294397844       -0.0882732926
 H         -9.4905651823       -1.1265739689       -0.6910729712
 H         -7.9201849706       -3.0282417879       -0.7345303793
 H         -5.5159167375       -2.6484337786       -0.1588830616
 H         -4.1569719674        0.0836623065       -1.6992843428
 H         -2.7406823982        1.2797375800       -3.1243174350
 H         -0.5510472659        2.3754715602       -3.4225356335
 H          1.1749222718        2.2035326425       -1.6693729812
 H          0.5510536553        0.3130623661        1.5366150717
 C          1.3171931556        2.2869245065        1.2681419093
 C          0.2826926761        2.9875723704        2.0945076099
 C          1.5321784503        2.4674501767        2.7388329080
 H          2.2769707961        3.1766883937        3.0676145494
 H          1.4549804011        1.5915804163        3.3673370084
 H          0.1693736120        4.0548409022        1.9812429941
 H         -0.6451043493        2.4656152751        2.2813707391
 H          1.9196050561        2.8854917009        0.5980810660
