  62
        -98.94289609
 C         -2.4513399664        0.0054787417        0.0426217081
 C         -1.5771982467        0.4261308010       -0.9876838072
 C         -1.2289697658        1.8523281853       -1.0018700787
 C         -1.7121057970        2.6544750233       -0.0366854841
 C         -1.3317752345        4.0932639613        0.1655513072
 C          0.0518471935        4.1642655559        0.8451857457
 C          1.1483170377        4.7939832934       -0.0145609408
 H          1.0038137135        5.8767038049       -0.0402809246
 H          2.0996178301        4.5969339755        0.4851120808
 C          1.2319387723        4.2938367945       -1.4600338253
 H          0.4762266984        4.7975466177       -2.0653121834
 H          2.2034989630        4.6060204026       -1.8488738785
 C          1.0878823584        2.7784841652       -1.6519975411
 H          1.7912877016        2.4628042647       -2.4256867800
 H          1.3586963668        2.2469991994       -0.7385033506
 C         -0.3160105452        2.3257840472       -2.0981563759
 H         -0.2103344549        1.4681480394       -2.7688093388
 H         -0.8018253520        3.1287758559       -2.6594820160
 H         -0.0260551202        4.7351985822        1.7724726186
 H          0.3502876135        3.1509789728        1.1259803102
 H         -2.0916853176        4.5491516920        0.8010144564
 H         -1.3172129551        4.6114519136       -0.7908310839
 O         -2.5475995323        2.2148983954        0.9408583146
 C         -2.9117539791        0.8811520733        1.0225998569
 O         -3.6384116997        0.6024395633        2.0009763279
 O         -1.0999877032       -0.3567990077       -1.8509361822
 C         -2.7805498721       -1.4727444025        0.1889810434
 C         -1.4695500868       -2.2054193776        0.3417338864
 C         -1.0670736447       -3.2708138088       -0.4518935249
 C          0.2125125425       -3.7888980339       -0.3372185413
 C          1.1213248725       -3.2421038007        0.5510055488
 C          0.7138070201       -2.2004065979        1.3729488583
 C         -0.5774737850       -1.7135548718        1.2878854704
 H         -0.8791539760       -0.8880001374        1.9219354318
 N          1.6764025795       -1.5713378544        2.2207434378
 S          2.1992732286       -0.1256974095        1.5135292861
 O          3.1912163399        0.4168355930        2.4187212811
 O          1.0897328261        0.7582968418        1.2238669587
 C          2.9724949381       -0.6983813884        0.0213026098
 C          4.3010879002       -1.0728645115        0.0812620186
 C          4.9099552718       -1.5678266566       -1.0601428489
 C          4.1803700406       -1.6847416009       -2.2341296110
 C          2.8473173052       -1.3068998269       -2.2752282391
 C          2.2304663888       -0.8086340730       -1.1377677792
 H          1.1921831433       -0.5143735592       -1.1453026635
 H          2.2728766228       -1.3996921787       -3.1828811881
 H          4.6524528555       -2.0729957361       -3.1229172949
 H          5.9466028495       -1.8624866919       -1.0307063947
 H          4.8241099977       -0.9604388815        1.0167460215
 H          1.3006928151       -1.3461087590        3.1332158726
 H          2.1352995665       -3.6018825660        0.6144757204
 H          0.5145233662       -4.6080420866       -0.9710800600
 H         -1.7480884406       -3.6783985864       -1.1808908937
 H         -3.3542689035       -1.5701068702        1.1218651073
 C         -3.6255186791       -1.9611971900       -0.9669171576
 C         -4.5219515628       -3.1492551898       -0.7916781821
 C         -5.1108995689       -1.7763129170       -0.9081228035
 H         -5.6333156995       -1.5121401567       -1.8151572372
 H         -5.5180920950       -1.3135226272       -0.0206447549
 H         -4.6455131321       -3.8294734225       -1.6205594071
 H         -4.5371901298       -3.6253683838        0.1770681959
 H         -3.1413414574       -1.8183792215       -1.9256708910
