  62
        -98.93975857
 C         -2.3460734167       -1.0037399222        0.4223298209
 C         -2.6123135332       -0.0222282841       -0.5638268747
 C         -3.5725580471        1.0273304964       -0.1820663157
 C         -4.1000944828        1.0300048055        1.0547264970
 C         -5.1119868240        2.0172745823        1.5579710655
 C         -6.5439822603        1.5202709484        1.3159795919
 C         -6.7969173965        1.0378909339       -0.1123242482
 H         -6.2003766126        0.1414387440       -0.2966528221
 H         -7.8467044137        0.7434892049       -0.1753952557
 C         -6.4923093671        2.0799998153       -1.1975048217
 H         -7.3086288619        2.0793542050       -1.9229023795
 H         -6.4537611821        3.0759329019       -0.7548408065
 C         -5.2025020029        1.8231557200       -1.9791141678
 H         -5.1977480832        2.4807019019       -2.8526392686
 H         -5.1952560720        0.7935985719       -2.3461123012
 C         -3.8965217712        2.0716594224       -1.2138189796
 H         -3.0771798910        2.0419348186       -1.9384246442
 H         -3.9185739429        3.0656862597       -0.7623222995
 H         -6.7422820640        0.6901748581        1.9978614501
 H         -7.2352661345        2.3300402423        1.5562000185
 H         -4.9588444506        2.1478033780        2.6305187664
 H         -4.9588583255        2.9727141042        1.0599163105
 O         -3.7963171242        0.0912691443        1.9863634100
 C         -2.9305359063       -0.9466351175        1.6919328775
 O         -2.7613435834       -1.7509885675        2.6294503323
 O         -2.0831557538        0.0026355115       -1.7064042536
 C         -1.4086229108       -2.1802565937        0.1981870847
 C          0.0221695077       -1.7987058662        0.4799609440
 C          0.8137706859       -2.5609758344        1.3303093875
 C          2.1302146988       -2.2072858778        1.5709093194
 C          2.6819809349       -1.0890194309        0.9719835406
 C          1.8997542090       -0.3214998508        0.1187024538
 C          0.5810304707       -0.6793244052       -0.1214492903
 H         -0.0203176285       -0.0871734229       -0.7957212116
 N          2.4447608999        0.8241614266       -0.4877407959
 S          3.9058132000        0.6607164796       -1.2995661621
 O          3.9249999973        1.7312656022       -2.2719130273
 O          4.0771154860       -0.6785756742       -1.8136829338
 C          5.1265662015        0.9958249488       -0.0474150025
 C          5.0297036599        2.1821280297        0.6532785175
 C          5.9773288311        2.4650022093        1.6238597193
 C          7.0018685634        1.5638256814        1.8733706002
 C          7.0873125430        0.3789116395        1.1586672294
 C          6.1415576306        0.0891484908        0.1872717557
 H          6.1640070474       -0.8220162307       -0.3890456089
 H          7.8847849038       -0.3198724337        1.3539282122
 H          7.7380817305        1.7868317821        2.6294037284
 H          5.9139897557        3.3853094402        2.1819167040
 H          4.2200808478        2.8558178958        0.4267830358
 H          1.7782369406        1.3280593849       -1.0557185613
 H          3.7062501733       -0.8088916622        1.1564228231
 H          2.7335187786       -2.8077510483        2.2344099479
 H          0.3873860356       -3.4291603750        1.8113117855
 H         -1.7046660020       -2.9275862831        0.9509569397
 C         -1.5896641606       -2.8245284214       -1.1711940056
 C         -0.5536923266       -2.8006375700       -2.2511652169
 C         -0.8347616797       -4.0742765726       -1.5155440610
 H         -1.3533639024       -4.8692813162       -2.0295332570
 H         -0.0908083390       -4.4134989950       -0.8104189151
 H         -0.8974652736       -2.6987482113       -3.2695265466
 H          0.3823549885       -2.2978865801       -2.0615956462
 H         -2.6218328168       -2.7776157004       -1.5038722031
