  62
        -98.93583003
 C          2.2394881561        0.1868503921        0.3584069813
 C          3.3503176876        0.7562531545       -0.3138463003
 C          4.4318162535       -0.1791222610       -0.6599682596
 C          4.3089769486       -1.4883066708       -0.3815762555
 C          5.3117947018       -2.5629808908       -0.7035061976
 C          6.4342365060       -2.6996422519        0.3344464381
 C          7.4688890245       -1.5735515213        0.3265442535
 H          8.3058914202       -1.9042670945        0.9446900585
 H          7.8467007607       -1.4362406234       -0.6870226193
 C          6.9521844757       -0.2346604041        0.8714744750
 H          6.0361528016       -0.4033515165        1.4426866704
 H          7.6868201104        0.1849900049        1.5624752107
 C          6.6805833576        0.8230650390       -0.1983188069
 H          7.6174448616        1.0973430497       -0.6881345798
 H          6.2840495436        1.7145570287        0.2941124225
 C          5.6757766624        0.3900354648       -1.2736990613
 H          6.1336681786       -0.3339620175       -1.9470328051
 H          5.3879299171        1.2731505147       -1.8490097452
 H          6.9512069690       -3.6406455188        0.1327774072
 H          5.9838023215       -2.7744289163        1.3270219805
 H          4.7575411002       -3.5034094768       -0.7377561454
 H          5.7443727240       -2.3782003984       -1.6871547231
 O          3.2085433863       -2.0033351758        0.2315152918
 C          2.1700605758       -1.1813142997        0.6343164261
 O          1.2484238534       -1.7807351428        1.2272928611
 O          3.4542949413        1.9699663149       -0.6219146421
 C          1.0456983335        1.0018844517        0.8276599909
 C          0.0083060128        1.1205650860       -0.2597203967
 C          0.3508218225        1.5293942805       -1.5451748914
 C         -0.6168045274        1.6289515040       -2.5276700732
 C         -1.9373757397        1.3228902284       -2.2505754295
 C         -2.2919716508        0.9215920164       -0.9676061403
 C         -1.3179911239        0.8218685599        0.0166850384
 H         -1.6014886936        0.4861125261        1.0029800716
 N         -3.6360019364        0.6566272155       -0.6529509575
 S         -4.0027745206       -0.5727018180        0.4452424620
 O         -3.7558822628       -0.0894593991        1.7802167095
 O         -3.3358785008       -1.7974335350        0.0641782170
 C         -5.7598634437       -0.7126226737        0.1748111518
 C         -6.5970569059        0.2116445595        0.7709845381
 C         -7.9609705731        0.1254774407        0.5416613180
 C         -8.4624516195       -0.8771328286       -0.2752799358
 C         -7.6103073838       -1.7988344980       -0.8646536235
 C         -6.2447384498       -1.7173571321       -0.6407766600
 H         -5.5448074739       -2.4163552107       -1.0700774654
 H         -8.0030875638       -2.5796354887       -1.4958184508
 H         -9.5245679232       -0.9428813022       -0.4509568257
 H         -8.6269698246        0.8381665783        1.0006986841
 H         -6.1626320391        0.9667224117        1.4049958795
 H         -4.2183966929        0.5880246755       -1.4770288130
 H         -2.6900089578        1.3973184863       -3.0208409634
 H         -0.3386763969        1.9439774901       -3.5222053401
 H          1.3797950757        1.7721911662       -1.7617336520
 H          0.5952299249        0.4102150340        1.6417950274
 C          1.4397844775        2.3504572343        1.4172982115
 C          1.1251814583        3.6625639372        0.7710332442
 C          0.3835770130        3.2415845589        2.0015919595
 H          0.5896072370        3.7459792288        2.9335833523
 H         -0.6440734381        2.9286509954        1.8867202968
 H          1.8637062100        4.4454504872        0.8500141408
 H          0.5983863933        3.6547630254       -0.1697244462
 H          2.3798886231        2.2940568421        1.9568664155
