  62
        -98.94044618
 C         -1.9793068167       -1.4643440122        0.4519540352
 C         -2.3444508494       -0.8778894272       -0.7847909919
 C         -3.1909453043        0.3243965219       -0.7004290389
 C         -3.5552771396        0.8002792375        0.5033127111
 C         -4.3465345410        2.0553381915        0.7294104462
 C         -3.4215428409        3.2703044210        0.8902903985
 C         -2.3545829158        3.3794740208       -0.1992259049
 H         -1.7710717552        4.2809293158        0.0005880617
 H         -1.6745629566        2.5282413214       -0.1187374903
 C         -2.9122357713        3.4385697439       -1.6281560051
 H         -2.3937449188        4.2286568485       -2.1756173018
 H         -3.9701958214        3.7020830743       -1.6040472426
 C         -2.7313039470        2.1483013604       -2.4298498543
 H         -1.6839000213        1.8369225264       -2.3907409153
 H         -2.9665532005        2.3618153038       -3.4760644767
 C         -3.6056157949        0.9645414566       -1.9961196867
 H         -4.6507410319        1.2774895465       -1.9533854999
 H         -3.5110854292        0.1867164547       -2.7597595649
 H         -4.0339314675        4.1736191631        0.8938616388
 H         -2.9203181251        3.1965168980        1.8581483471
 H         -5.0237250512        2.2090415213       -0.1084599772
 H         -4.9333403767        1.9326796587        1.6411411033
 O         -3.1893461484        0.2102354246        1.6687829594
 C         -2.3996332319       -0.9262516630        1.6729497395
 O         -2.1438547283       -1.3645799926        2.8112019592
 H          0.1734229822       -1.2694946770       -1.3239035577
 C          0.8419944646       -1.5662716043       -0.5291566401
 C          0.3501157468       -2.3315233258        0.5200049585
 C          1.2213925044       -2.7056134753        1.5355628384
 C          2.5539079873       -2.3310112749        1.4942248146
 C          3.0419738490       -1.5738433913        0.4445786007
 C          2.1754559447       -1.1876156812       -0.5706523628
 N          2.6530835306       -0.4001887203       -1.6329582328
 S          3.5977006424        0.9236086567       -1.2423732224
 O          3.3739533224        1.8818039336       -2.3014228855
 O          4.9633646491        0.4998522669       -1.0574849781
 C          2.9501675922        1.5347194669        0.3051784009
 C          3.7725620678        1.6008910635        1.4112419818
 C          3.2501326835        2.0590189695        2.6100811215
 C          1.9188498079        2.4374028208        2.6823449111
 C          1.1056383191        2.3683665070        1.5614696606
 C          1.6232475464        1.9132016285        0.3600699972
 H          1.0137282342        1.8515740086       -0.5282448392
 H          0.0692156983        2.6610566102        1.6216073698
 H          1.5084069803        2.7883738276        3.6159173812
 H          3.8797523888        2.1158577887        3.4832481166
 H          4.8004582229        1.2925195727        1.3109286367
 H          1.9414015083       -0.1585437707       -2.3071229213
 H          4.0771327114       -1.2773112235        0.3932714208
 H          3.2198850636       -2.6301169960        2.2888596849
 H          0.8448030849       -3.2821221499        2.3675943149
 C         -1.1087246415       -2.7076964588        0.5616471920
 H         -1.3175796981       -3.1138160579        1.5633315876
 C         -1.4833094477       -3.7845410783       -0.4489294517
 C         -0.5888961412       -4.2352097335       -1.5610897815
 C         -0.8201579097       -5.1286584163       -0.3820795102
 H         -1.4253207676       -6.0135167340       -0.5084115571
 H         -0.0082430472       -5.2442938529        0.3202968814
 H          0.3792881507       -3.7713254241       -1.6655310723
 H         -1.0530030398       -4.4841063291       -2.5034544924
 H         -2.5467167153       -3.7806533014       -0.6657983474
 O         -1.9890741193       -1.3103548515       -1.9125289903
