  62
        -98.93923101
 C         -2.6418392459       -1.2660018378        0.3871060264
 C         -2.9571089605       -0.1410417504        1.1917509431
 C         -4.0943033005        0.6782974489        0.7570851941
 C         -4.7683649878        0.3249898885       -0.3524440047
 C         -5.9143950185        1.0934588174       -0.9424864080
 C         -5.4228675813        2.1184179223       -1.9740737571
 C         -4.2685877785        2.9896449829       -1.4782000975
 H         -3.3861211372        2.3633489677       -1.3261050788
 H         -4.0263890427        3.6945272540       -2.2765411956
 C         -4.5668896953        3.7641248361       -0.1867725851
 H         -4.2148619565        4.7910747332       -0.3053126872
 H         -5.6439157441        3.8076827666       -0.0206623567
 C         -3.8846313581        3.2023524843        1.0621736047
 H         -3.9809235458        3.9404035840        1.8632019148
 H         -2.8166110309        3.0693402835        0.8686563723
 C         -4.4478733958        1.8771297000        1.5910976295
 H         -4.0061066631        1.6981643107        2.5758529672
 H         -5.5303102476        1.9590506976        1.7097471868
 H         -6.2640652911        2.7535100591       -2.2574702930
 H         -5.0871208157        1.5808536125       -2.8637272442
 H         -6.4562623685        1.5967319662       -0.1441343097
 H         -6.5842493915        0.3873366546       -1.4359363351
 O         -4.4443113824       -0.7609414731       -1.0954005839
 C         -3.3648586094       -1.5742080695       -0.7662633294
 O         -3.1831922579       -2.5077775911       -1.5673114991
 O         -2.3157538275        0.1564275261        2.2368277090
 C         -1.4567464411       -2.1037601948        0.8348783008
 C         -0.1936433687       -1.5654860876        0.2127857434
 C         -0.0614468897       -1.4547202649       -1.1685794239
 C          1.0938176937       -0.9324181049       -1.7198555846
 C          2.1330887475       -0.5029673858       -0.9118231914
 C          2.0014542861       -0.5861385106        0.4672281821
 C          0.8448713777       -1.1248664839        1.0186486163
 H          0.7403824054       -1.1773829722        2.0940184414
 N          3.0472064408       -0.1494226303        1.2949774525
 S          3.8045999943        1.3091279144        0.9527475358
 O          4.3633664457        1.7434249173        2.2141821315
 O          2.9116248920        2.2318642745        0.2916436647
 C          5.1332409190        0.8472254822       -0.1398062292
 C          5.9954636007       -0.1518673504        0.2678401108
 C          7.0391751199       -0.5168411809       -0.5672339132
 C          7.2046926348        0.1217906489       -1.7873008554
 C          6.3335507748        1.1262139421       -2.1800407844
 C          5.2866091219        1.4953831288       -1.3496351217
 H          4.5818076024        2.2670751447       -1.6163405168
 H          6.4641321446        1.6225959472       -3.1282520778
 H          8.0171514086       -0.1648848998       -2.4361686971
 H          7.7189334435       -1.2971190624       -0.2650270182
 H          5.8347988795       -0.6212188258        1.2239119024
 H          2.8486450340       -0.2292225525        2.2818868745
 H          3.0307336603       -0.0881586012       -1.3399901513
 H          1.1868231555       -0.8559085042       -2.7926781283
 H         -0.8766426304       -1.7774084314       -1.7989842265
 H         -1.3889764564       -1.9261544511        1.9202055453
 C         -1.6508450642       -3.5995767379        0.6335899830
 C         -0.8279097171       -4.4301574843       -0.3005587867
 C         -0.6320142146       -4.5573306789        1.1782926797
 H         -0.9739071463       -5.4520575495        1.6759321154
 H          0.2677264509       -4.1329529225        1.5986014332
 H         -1.3297985879       -5.2249468823       -0.8307551603
 H         -0.0556361847       -3.9445981843       -0.8753935426
 H         -2.6915367318       -3.8885973873        0.7364199123
