  62
        -98.93940460
 C          2.4415323244        1.0901617020        0.5050759778
 C          2.2653488270       -0.2165800323       -0.0157254327
 C          3.3628659237       -1.1597232138        0.2485308500
 C          4.4270442045       -0.7734176262        0.9730572530
 C          5.6120414417       -1.6265787143        1.3360630797
 C          6.6860701753       -1.7019589925        0.2421361731
 C          6.3135454469       -2.5424619653       -0.9799878050
 H          7.2281485979       -2.6898444870       -1.5578073458
 H          5.9733220596       -3.5255754522       -0.6532170609
 C          5.2535530331       -1.9046114413       -1.8889135659
 H          5.1749157505       -0.8383805739       -1.6639627921
 H          5.5694424747       -1.9880967474       -2.9312892317
 C          3.8656939103       -2.5368121697       -1.7834164683
 H          3.1870274329       -1.9864988550       -2.4402401396
 H          3.9066869249       -3.5705803097       -2.1335770913
 C          3.2722387355       -2.5228035625       -0.3686691700
 H          3.7758850029       -3.2585503258        0.2577992760
 H          2.2136149662       -2.7849506791       -0.4373652228
 H          6.9333038658       -0.6863020491       -0.0756921043
 H          7.5812913120       -2.1348536130        0.6945057379
 H          5.2756831292       -2.6328829084        1.5874591559
 H          6.0577249154       -1.1764869630        2.2257992915
 O          4.5374668951        0.4776835679        1.4946945251
 C          3.5593185418        1.4327380686        1.2713456330
 O          3.7927462065        2.5340093651        1.8093018916
 O          1.2598753736       -0.5948175728       -0.6682303392
 C          1.3989824252        2.1802240050        0.3166782830
 C          0.0273627763        1.6323785073        0.6230005461
 C         -0.2895833947        1.3229670443        1.9427808576
 C         -1.5247452375        0.7958261036        2.2665092401
 C         -2.4679928259        0.5577645117        1.2818497101
 C         -2.1621814872        0.8627639539       -0.0372425449
 C         -0.9245643753        1.4089277945       -0.3575640450
 H         -0.6908649023        1.6202670672       -1.3893329162
 N         -3.0868106316        0.5894575455       -1.0510145480
 S         -4.7308113424        0.7133845556       -0.8121076803
 O         -5.2943929119        0.7925385413       -2.1422137864
 O         -5.0624511517        1.7966990507        0.0847548983
 C         -5.1848022940       -0.8452184788       -0.0791840238
 C         -4.6838862047       -2.0041490231       -0.6386958811
 C         -5.0441521819       -3.2233089169       -0.0873438792
 C         -5.8975730797       -3.2637986435        1.0051220972
 C         -6.3948746648       -2.0916498931        1.5533201206
 C         -6.0369986817       -0.8687761386        1.0073644742
 H         -6.3934533582        0.0675910728        1.4063831690
 H         -7.0575920268       -2.1251756352        2.4031379836
 H         -6.1753686850       -4.2145224574        1.4320967061
 H         -4.6567532130       -4.1364511317       -0.5100043289
 H         -4.0207270345       -1.9344247103       -1.4849324271
 H         -2.7958488260        0.8469879478       -1.9809351977
 H         -3.4317172010        0.1432089738        1.5284086395
 H         -1.7559397774        0.5604546616        3.2944695054
 H          0.4523203919        1.4946032215        2.7112672757
 H          1.6373810171        2.9359966289        1.0827957114
 C          1.4752993012        2.8905564672       -1.0268645858
 C          2.8016042093        3.1557754602       -1.6729021284
 C          1.8438617200        2.1886737981       -2.2978718436
 H          1.3424387788        2.4836491372       -3.2085677172
 H          2.0658734033        1.1347916610       -2.2447983260
 H          2.9593155730        4.1103848355       -2.1519094101
 H          3.6806150964        2.7638092467       -1.1819406562
 H          0.7363902682        3.6829826860       -1.1045038413
