  62
        -98.93975811
 C         -2.6769667547       -0.8032921566        0.3370446698
 C         -2.6957586180        0.3107549672        1.2106737744
 C         -3.3584198681        1.5156102878        0.7012253336
 C         -3.8970325685        1.5087960546       -0.5319596135
 C         -4.6284559702        2.6504425409       -1.1844854383
 C         -3.7089305859        3.6741555592       -1.8644196636
 C         -2.9216536446        4.5744802296       -0.9115620108
 H         -2.4916400470        5.3780694382       -1.5125867234
 H         -3.6068566237        5.0327604137       -0.1977496201
 C         -1.7896812879        3.8622316430       -0.1578438976
 H         -0.8856159466        4.4740360378       -0.1965155520
 H         -1.5582014627        2.9178333801       -0.6565570832
 C         -2.0869971381        3.5856072298        1.3161131956
 H         -1.2357958468        3.0492103960        1.7433641798
 H         -2.1918467494        4.5312754220        1.8523772541
 C         -3.3469246408        2.7443555564        1.5601160011
 H         -3.3465981084        2.4207716491        2.6038775438
 H         -4.2396243748        3.3426086695        1.3797790868
 H         -4.3373907663        4.3085423681       -2.4936720988
 H         -3.0156753191        3.1401312614       -2.5185178109
 H         -5.2746784942        2.2092653128       -1.9463150360
 H         -5.2541262445        3.1541975402       -0.4471701882
 O         -3.8499531172        0.4209211087       -1.3450713134
 C         -3.2182998129       -0.7495647019       -0.9478761021
 O         -3.2180229928       -1.6454902498       -1.8122010431
 H          0.0877966320       -0.4440104985        0.7341947496
 C          0.2552823522       -1.2906005751        0.0795522281
 C         -0.7278593795       -2.2696504397       -0.0130871918
 C         -0.5033231201       -3.3582429306       -0.8435236566
 C          0.6699503964       -3.4480891618       -1.5740182077
 C          1.6385226901       -2.4655508567       -1.4909187862
 C          1.4290875371       -1.3766246540       -0.6530374452
 N          2.4022967456       -0.3610319242       -0.5655479359
 S          4.0066669242       -0.8624756224       -0.3796743697
 O          4.5169549822       -1.2474039397       -1.6713671210
 O          4.0949896144       -1.8658784801        0.6580937584
 C          4.7836829361        0.6506585231        0.1493793570
 C          4.9467690953        0.8891732392        1.5008206826
 C          5.5345003167        2.0774765837        1.9052629839
 C          5.9441938093        3.0025836732        0.9567914830
 C          5.7733820755        2.7488115002       -0.3960942213
 C          5.1875889726        1.5622187918       -0.8074254201
 H          5.0434868855        1.3173873382       -1.8467467598
 H          6.0955978437        3.4696456679       -1.1301140140
 H          6.4020751598        3.9259455720        1.2746126369
 H          5.6710038982        2.2762310247        2.9560936406
 H          4.6226042774        0.1377260147        2.2031432600
 H          2.1635877789        0.3233391532        0.1399132549
 H          2.5558173411       -2.5300476812       -2.0534725663
 H          0.8315460080       -4.2973098463       -2.2210226311
 H         -1.2479750730       -4.1321974406       -0.9275322459
 C         -1.9858577068       -2.0751995176        0.7984339006
 H         -1.6867854027       -1.8802401562        1.8388361639
 C         -2.9261075038       -3.2597828415        0.7782071708
 C         -2.6264639997       -4.4593347143        1.6251322109
 C         -3.7584020292       -3.5480021797        1.9902689058
 H         -4.7699044958       -3.8978565232        1.8487317444
 H         -3.6374141711       -2.8977657766        2.8444195168
 H         -1.7342591507       -4.4302013441        2.2323615848
 H         -2.8609899714       -5.4380691045        1.2351351760
 H         -3.3854007577       -3.4185386767       -0.1902203375
 O         -2.1804317017        0.2990194553        2.3618113757
