  62
        -98.94869447
 C          1.4130324524        1.0217896063        0.9164008898
 C          2.4336419258        0.4896185303        0.0930538687
 C          2.7962288026       -0.9098032869        0.3502838607
 C          2.1108850893       -1.6235624962        1.2605507667
 C          2.3388567121       -3.0691161210        1.6103269011
 C          1.6711314446       -4.0502572623        0.6366497246
 C          2.3660857229       -4.1972586649       -0.7176721137
 H          1.9543616525       -5.0905732401       -1.1920364361
 H          3.4324098283       -4.3699959781       -0.5650372470
 C          2.1615773375       -3.0054277354       -1.6633259419
 H          1.2988519516       -2.4205606715       -1.3353796007
 H          1.9247545353       -3.3751553722       -2.6644917440
 C          3.3723957056       -2.0823483774       -1.8000384656
 H          3.0881492663       -1.2428342161       -2.4397393616
 H          4.1891528959       -2.6195530792       -2.2891755533
 C          3.8929626469       -1.5124748444       -0.4754231021
 H          4.6060772209       -0.7167921384       -0.7069496854
 H          4.4074979960       -2.2894287375        0.0903255670
 H          0.6375864793       -3.7346740743        0.4712009540
 H          1.6503440567       -5.0297647780        1.1208523828
 H          1.9110861404       -3.2212977590        2.6038088828
 H          3.4090724140       -3.2735999742        1.6583039941
 O          1.1068759877       -1.0883398673        2.0038328092
 C          0.7300918084        0.2349057991        1.8442210105
 O         -0.2113339449        0.5918025576        2.5826129762
 O          3.0253559333        1.1426627335       -0.8065160205
 C          0.8971354036        2.4369566260        0.6991626842
 C          0.1809542471        2.4383319786       -0.6305527914
 C          0.5012351164        3.2622734408       -1.6998464195
 C         -0.1553324885        3.1143529699       -2.9109510001
 C         -1.1168174281        2.1360958757       -3.0863254133
 C         -1.4539616357        1.3161997407       -2.0140689957
 C         -0.8306774993        1.4991581381       -0.7930233768
 H         -1.0993417368        0.8672438238        0.0407253276
 N         -2.4209484951        0.3076526127       -2.1337328372
 S         -2.2535953247       -1.1031629854       -1.2453770686
 O         -0.8698084552       -1.4676053207       -1.0526510273
 O         -3.0622102375       -2.0696487124       -1.9622049586
 C         -3.0433724932       -0.7524874508        0.3092416842
 C         -2.5266578799       -1.3001134395        1.4654155560
 C         -3.1703212343       -1.0586981491        2.6683894220
 C         -4.3159550786       -0.2798765318        2.6922381614
 C         -4.8265451503        0.2586909981        1.5206150137
 C         -4.1883103663        0.0197070567        0.3148385279
 H         -4.5524824074        0.4243173654       -0.6148102270
 H         -5.7170784925        0.8660500213        1.5446842777
 H         -4.8110577358       -0.0896713256        3.6314975877
 H         -2.7640629498       -1.4691943258        3.5785899666
 H         -1.6205910656       -1.8836249954        1.4114067325
 H         -2.7542912868        0.1336378879       -3.0704561672
 H         -1.5995171267        2.0011005866       -4.0422382289
 H          0.1041987915        3.7563219307       -3.7391690400
 H          1.2744002333        4.0051381918       -1.5932279905
 H          0.1514310221        2.6119758463        1.4879889809
 C          1.9936393980        3.4704705991        0.8191359643
 C          1.6424783531        4.8918024962        1.1389419139
 C          2.3146274456        4.0359369829        2.1688654921
 H          3.3479429996        4.2331634076        2.4115444406
 H          1.7287485558        3.6871920093        3.0069427597
 H          2.2155062037        5.6810864425        0.6765797272
 H          0.5987836393        5.1283810929        1.2803449128
 H          2.8218905200        3.2853627322        0.1462282387
