  62
        -98.93908277
 C          2.3068872757        0.8741400599        0.6476107137
 C          3.4059086855        0.9255475653       -0.2449099454
 C          4.5004392986       -0.0192199470        0.0286811316
 C          4.4162128507       -0.8477965323        1.0841822624
 C          5.4300677936       -1.8958301125        1.4390028915
 C          5.0919175686       -3.2413133158        0.7816966899
 C          4.7881832732       -3.1402822520       -0.7132261203
 H          4.5958735756       -4.1529352095       -1.0743956719
 H          3.8664158606       -2.5700891934       -0.8516560411
 C          5.9085718915       -2.5038761515       -1.5476433692
 H          6.8444232940       -2.5252706041       -0.9881702774
 H          6.0557506933       -3.1021294946       -2.4492270277
 C          5.6240674745       -1.0719576886       -2.0046518391
 H          4.6416474729       -1.0277410841       -2.4814761152
 H          6.3673823402       -0.8022457947       -2.7595008216
 C          5.6754572307       -0.0002639524       -0.9085733235
 H          6.6118155211       -0.0847123824       -0.3537544683
 H          5.6518654441        0.9774284782       -1.3982856839
 H          5.9300001282       -3.9225391574        0.9397246279
 H          4.2147264102       -3.6592854520        1.2812248275
 H          6.4159888210       -1.5619218707        1.1216680584
 H          5.4296128131       -2.0206812948        2.5231344512
 O          3.3569960101       -0.8531796263        1.9341318963
 C          2.2815738847       -0.0063929781        1.7335326205
 O          1.3786803049       -0.1217361396        2.5881883093
 H         -1.2242715831        0.3945898329        0.7736461660
 C         -0.9808013831        0.5637233716       -0.2659878636
 C          0.1824756688        1.2414872536       -0.6038701447
 C          0.4857645921        1.4218310355       -1.9495807356
 C         -0.3670784555        0.9440384484       -2.9276571721
 C         -1.5416101924        0.2968987479       -2.5876457382
 C         -1.8458847492        0.0976493237       -1.2458465151
 N         -3.0154138309       -0.5827944404       -0.8711200719
 S         -3.8063000798       -0.1082204501        0.5425960511
 O         -3.8215601833        1.3340399165        0.6409918163
 O         -3.2360822180       -0.8213582569        1.6579987341
 C         -5.4493993932       -0.7192610052        0.2152881640
 C         -5.7194230757       -2.0559603297        0.4409707497
 C         -6.9872434655       -2.5396798308        0.1595590465
 C         -7.9581122547       -1.6841716103       -0.3401933130
 C         -7.6729734952       -0.3448542493       -0.5593445261
 C         -6.4066073881        0.1453109083       -0.2812987657
 H         -6.1411564693        1.1800285000       -0.4271751383
 H         -8.4308027345        0.3183468156       -0.9441356663
 H         -8.9442048612       -2.0633114012       -0.5571006085
 H         -7.2134756371       -3.5795655186        0.3319363627
 H         -4.9358654136       -2.6793665120        0.8395736043
 H         -3.6589853930       -0.7138239161       -1.6396194529
 H         -2.2136041633       -0.0613415402       -3.3528142582
 H         -0.1202204289        1.0891489629       -3.9685856672
 H          1.4041482846        1.9184175557       -2.2193894319
 C          1.0802505449        1.7605181663        0.4947440108
 H          0.5275883780        1.6641260670        1.4398512228
 C          1.4225895898        3.2237151958        0.2909726942
 C          0.3509928959        4.2474114080        0.5098352196
 C          1.4881173665        4.1321871929        1.4794135744
 H          2.2364430498        4.9104021889        1.4921346514
 H          1.2892174086        3.7012587954        2.4503841271
 H          0.3169995351        5.1063028542       -0.1426529010
 H         -0.6210290149        3.8920183288        0.8206361803
 H          2.1333369171        3.3970706819       -0.5056838437
 O          3.4946651273        1.7133182985       -1.2225955431
