  62
        -98.94478946
 C         -1.5499210896       -1.5529558369       -0.4850493865
 C         -1.4288212524       -0.1803364788       -0.8147597339
 C         -2.6518057964        0.6211021539       -0.6633201991
 C         -3.7983538937        0.0369382059       -0.2738361124
 C         -5.1301334550        0.7175639598       -0.1085801191
 C         -5.3162370541        1.4071255511        1.2498960025
 C         -4.5037151151        2.6877320735        1.4450603971
 H         -4.6798015436        3.3592789679        0.6043084393
 H         -4.8902395012        3.1784131030        2.3405846279
 C         -2.9954789803        2.4590600216        1.6183179604
 H         -2.6313935707        3.0561391916        2.4573142179
 H         -2.8122438500        1.4116924761        1.8697998038
 C         -2.1524385512        2.8302981332        0.3983100248
 H         -2.2204911484        3.9056482669        0.2216762175
 H         -1.1095283471        2.5865187557        0.6154322471
 C         -2.5465015542        2.0987689311       -0.8909739521
 H         -1.7594333697        2.2637658625       -1.6304706899
 H         -3.4854629658        2.4928433212       -1.2788262105
 H         -6.3758304794        1.6552710429        1.3465345426
 H         -5.0690502632        0.6943432718        2.0401657827
 H         -5.2715756743        1.4442521832       -0.9090680711
 H         -5.8906155447       -0.0602247425       -0.2066524792
 O         -3.8819819128       -1.2923267981        0.0017311550
 C         -2.7642599764       -2.1055137076       -0.0675568047
 O         -2.9790414051       -3.2928891534        0.2520185695
 O         -0.3736228007        0.3671571766       -1.2249009092
 C         -0.3697335706       -2.5109986253       -0.5450848143
 C          0.5548580920       -2.2571626332        0.6218673416
 C          0.4773778675       -3.0636382779        1.7529987202
 C          1.3039026375       -2.8359864002        2.8380230981
 C          2.2272295850       -1.8064764448        2.8122041357
 C          2.3037237693       -0.9858025329        1.6916428941
 C          1.4681084479       -1.2123343330        0.6074471289
 H          1.5218343437       -0.5580472383       -0.2457403698
 N          3.2000500062        0.0875474987        1.6603081072
 S          3.8671534771        0.6558910846        0.2375522082
 O          4.1110040051       -0.4101849541       -0.7056705822
 O          5.0407384879        1.3845801464        0.6773795910
 C          2.6899343628        1.8244416119       -0.4020216560
 C          2.3362369797        1.7830127852       -1.7338891603
 C          1.4586745923        2.7363025162       -2.2237898669
 C          0.9562622396        3.7102941262       -1.3773735858
 C          1.3239140028        3.7400218000       -0.0405598504
 C          2.2006674812        2.7899089489        0.4548090744
 H          2.5093288943        2.7805094747        1.4872623263
 H          0.9265115638        4.4983943873        0.6153315591
 H          0.2677563078        4.4479084401       -1.7593620782
 H          1.1642612650        2.7077803448       -3.2607875115
 H          2.7415701670        1.0015334572       -2.3572559156
 H          3.8427331061        0.1432685986        2.4359164293
 H          2.8798317260       -1.6325220709        3.6543444760
 H          1.2352696603       -3.4709049302        3.7085736006
 H         -0.2469986228       -3.8656608613        1.7763611940
 H         -0.7977669034       -3.5148348660       -0.4193821512
 C          0.3566074906       -2.4652474746       -1.8742536961
 C          1.2494484211       -3.6076347193       -2.2501264142
 C         -0.0512977311       -3.4048882810       -2.9668062268
 H         -0.0304600004       -3.0506317225       -3.9865219434
 H         -0.8590647221       -4.0922776768       -2.7601549449
 H          2.1695217531       -3.3914207929       -2.7714810717
 H          1.3228809357       -4.4324479259       -1.5570088352
 H          0.6642631621       -1.4706619548       -2.1683345560
