  62
        -98.94030159
 C         -1.5072289172       -1.6632322392       -0.2130912901
 C         -1.4316252643       -0.2896609362       -0.5404819503
 C         -2.7104208706        0.4434218572       -0.5892995055
 C         -3.8568007373       -0.2042239669       -0.3109560311
 C         -5.2930656789        0.2762763463       -0.3072231982
 C         -5.6159607062        1.7685914528       -0.3041684868
 C         -5.2061200971        2.5137478828        0.9658953388
 H         -5.4025688051        3.5773547893        0.8136822960
 H         -5.8410524979        2.1735616726        1.7879878882
 C         -3.7535644655        2.3342038426        1.4017210339
 H         -3.5757542750        1.2889979293        1.6632695586
 H         -3.6043526514        2.9218483129        2.3116501116
 C         -2.7033551620        2.7763530944        0.3842755750
 H         -1.7289833580        2.7355210731        0.8782615624
 H         -2.8911903958        3.8106654956        0.0904468763
 C         -2.6083491719        1.9116542595       -0.8843398893
 H         -3.3463925327        2.2083682109       -1.6254196012
 H         -1.6172385552        2.0630863393       -1.3208711862
 H         -6.7025487427        1.8501135738       -0.3967714003
 H         -5.1898463334        2.2477603630       -1.1805218625
 H         -5.7600652058       -0.1925723171        0.5647559525
 H         -5.7624845389       -0.1768239448       -1.1875404698
 O         -3.8769274432       -1.5359898358       -0.0045224579
 C         -2.7193666025       -2.2903414356        0.0647700831
 O         -2.8993973621       -3.4836025586        0.3832260667
 O         -0.3512126321        0.3041337283       -0.7865314039
 C         -0.2348871754       -2.4866385738       -0.1157335896
 C          0.6545760077       -1.8668646444        0.9338828848
 C          0.1913194255       -1.8157300632        2.2470658352
 C          0.9467949829       -1.2250867044        3.2405004288
 C          2.1755739154       -0.6608473791        2.9429988100
 C          2.6472284399       -0.7095857468        1.6371668498
 C          1.8922884490       -1.3181610092        0.6427197297
 H          2.2871410091       -1.3469309993       -0.3580796823
 N          3.8962279459       -0.1630781534        1.3124545501
 S          4.1759416379        0.5578122937       -0.1654195304
 O          4.2853366414       -0.4427387819       -1.1977352572
 O          5.3681362378        1.3512095391        0.0584878960
 C          2.8104216247        1.6552947929       -0.4981761725
 C          2.3618841176        2.4885881521        0.5062375192
 C          1.3525087480        3.3932011063        0.2239574874
 C          0.8186168193        3.4572234508       -1.0531217709
 C          1.2797359036        2.6135276186       -2.0497519730
 C          2.2835845396        1.7014770561       -1.7708944122
 H          2.6617306641        1.0187805882       -2.5152514396
 H          0.8548018658        2.6548448736       -3.0402844456
 H          0.0330636046        4.1645515573       -1.2698445613
 H          0.9835142644        4.0450043602        1.0001974628
 H          2.7980705419        2.4255693797        1.4902445968
 H          4.3609217423        0.3270198374        2.0621862773
 H          2.7655388077       -0.1914691591        3.7154564220
 H          0.5749550218       -1.1949026468        4.2536397752
 H         -0.7759472686       -2.2446452217        2.4733694821
 H         -0.5396799553       -3.4835314248        0.2331873037
 C          0.4225408794       -2.6224986525       -1.4719944628
 C          1.3826871538       -3.7440790720       -1.7260126599
 C          0.0287304794       -3.7554989368       -2.3687652741
 H         -0.0407564880       -3.5726894077       -3.4306183021
 H         -0.7091435467       -4.4516038765       -1.9966381752
 H          2.2482634913       -3.5513002461       -2.3420069310
 H          1.5659308412       -4.4360446709       -0.9177149594
 H          0.6246544643       -1.6658552808       -1.9398885781
