  62
        -98.94092142
 C         -2.2952570291        0.4905458793       -0.1838885546
 C         -3.5582700418        1.0227133859       -0.5375139932
 C         -4.6631175412        0.0582314255       -0.6147906104
 C         -4.4173763003       -1.2424385827       -0.3721082086
 C         -5.4578394423       -2.3241133521       -0.3692928948
 C         -6.0515482674       -2.5210665677        1.0325258161
 C         -6.4983441695       -1.2214174592        1.7020460964
 H         -6.9293026371       -1.4860748455        2.6700706835
 H         -5.6198824223       -0.6028772027        1.9002231384
 C         -7.5184410621       -0.4083824954        0.8928350443
 H         -8.3101100615       -0.0717676250        1.5654293549
 H         -7.9831105294       -1.0434869420        0.1378462684
 C         -6.9441734549        0.8402994803        0.2211035891
 H         -7.7793184276        1.4503687100       -0.1330541631
 H         -6.3953564026        1.4327018806        0.9574954914
 C         -6.0217980564        0.5884320075       -0.9783214468
 H         -6.5166099298       -0.0752800014       -1.6901300450
 H         -5.8454079948        1.5499897311       -1.4691693260
 H         -5.2946271029       -2.9897408642        1.6657799833
 H         -6.8999270557       -3.2034576288        0.9550339610
 H         -6.2445684597       -2.0656511703       -1.0753587392
 H         -4.9858287410       -3.2548369727       -0.6884040131
 O         -3.1860850852       -1.7193299727       -0.0535021819
 C         -2.0960043354       -0.8683334576        0.0575297361
 O         -1.0303621104       -1.4364799862        0.3658747617
 H          1.5737842981        1.0026407885        0.4623825304
 C          1.3054297390        0.8203547252       -0.5638188864
 C         -0.0018023678        0.9870090285       -0.9924142076
 C         -0.3021826607        0.7466268460       -2.3312548564
 C          0.6765053833        0.3259411845       -3.2094419051
 C          1.9750102033        0.1338971531       -2.7710354696
 C          2.2903478988        0.3870977848       -1.4417676547
 N          3.6186319507        0.2520538649       -0.9947690052
 S          3.9501272976       -0.4102392383        0.5224035378
 O          3.4257509197       -1.7549578054        0.6162679150
 O          3.5389717954        0.5162202811        1.5457618577
 C          5.7319372847       -0.4518653143        0.4389837743
 C          6.3811764799       -1.6488482349        0.2050524936
 C          7.7648169806       -1.6556801087        0.1187728489
 C          8.4712272974       -0.4714006659        0.2637437237
 C          7.8054543325        0.7226470872        0.4989440005
 C          6.4227828519        0.7359535500        0.5881073711
 H          5.8633838537        1.6369496000        0.7777813826
 H          8.3583501302        1.6409937685        0.6136570614
 H          9.5476067993       -0.4794915601        0.1955903289
 H          8.2849556741       -2.5828268666       -0.0606856640
 H          5.7904915947       -2.5454599279        0.1055247119
 H          4.2038528552       -0.1951238558       -1.6889907366
 H          2.7382540878       -0.2069072344       -3.4544133720
 H          0.4266489580        0.1364047109       -4.2426922473
 H         -1.3201187738        0.8855129230       -2.6702138074
 C         -1.1095391990        1.4308862861       -0.0697665954
 H         -1.4768462897        2.4081134626       -0.4184383854
 C         -0.6790664411        1.5632280388        1.3756294909
 C         -0.0202207427        2.8212416477        1.8539198104
 C         -1.4226634042        2.5030926822        2.2748417002
 H         -1.6019820400        2.2049791125        3.2970214153
 H         -2.2299234187        3.0714521232        1.8361515117
 H          0.7714928794        2.7388333648        2.5834592342
 H          0.1249584502        3.6117927339        1.1332629460
 H         -0.3477553417        0.6210706099        1.8009408020
 O         -3.7495803489        2.2439555849       -0.7838618484
