  62
        -98.93851415
 C          2.3663119971        1.2289934507        0.2456750558
 C          2.4063965647       -0.0300312840       -0.3966101230
 C          3.4447946003       -0.9710245782        0.0652383404
 C          4.2835940520       -0.6048192751        1.0519459977
 C          5.3988136498       -1.3592798991        1.7454084846
 C          5.9736836694       -2.6375112782        1.1404046463
 C          6.7292564383       -2.4414382259       -0.1732722775
 H          7.6479082527       -1.8866669648        0.0331562475
 H          7.0130556090       -3.4254258154       -0.5529325583
 C          5.9714878083       -1.6883133708       -1.2637832443
 H          5.7790306348       -0.6643820010       -0.9371403449
 H          6.6204919887       -1.6293168475       -2.1417283866
 C          4.6536856678       -2.3240800686       -1.7029819252
 H          4.3077147735       -1.7850575213       -2.5890797463
 H          4.8236467824       -3.3635635714       -1.9901868503
 C          3.5181528754       -2.2811535942       -0.6648594782
 H          2.5680445437       -2.3902014770       -1.1965901025
 H          3.5913340147       -3.1077074220        0.0381369007
 H          5.1930287913       -3.3832681775        1.0222380104
 H          6.6824817017       -3.0350752333        1.8719397484
 H          6.2068622788       -0.6335082455        1.8812393113
 H          5.0213769497       -1.5910526602        2.7475837057
 O          4.1924106710        0.6169792332        1.6546179104
 C          3.2465627172        1.5513831280        1.2791983348
 O          3.2919413280        2.6159893358        1.9269495191
 H         -0.6039407810        1.0858367483       -1.6787647954
 C         -0.8883720594        1.1677701418       -0.6419941064
 C         -0.0276651763        1.7641480055        0.2646419494
 C         -0.4069521515        1.8267300447        1.6030691090
 C         -1.6196709380        1.3101066265        2.0170129047
 C         -2.4765432778        0.7120501551        1.1083451658
 C         -2.0991355266        0.6286805940       -0.2242883949
 N         -2.9566398066        0.0217735456       -1.1561589485
 S         -3.7172825612       -1.4155894492       -0.7473875002
 O         -2.9391211736       -2.1968375512        0.1858923805
 O         -4.0298688970       -2.0472257231       -2.0111948567
 C         -5.2356374448       -0.8821437288        0.0178028159
 C         -6.0056936899        0.0558711347       -0.6417692582
 C         -7.1961911582        0.4692952757       -0.0658076010
 C         -7.5973295707       -0.0619593168        1.1509665206
 C         -6.8155278548       -1.0060088628        1.7986012604
 C         -5.6225085082       -1.4226194054        1.2284258288
 H         -4.9792387915       -2.1489942007        1.6994662246
 H         -7.1287792495       -1.4187944375        2.7441091417
 H         -8.5243077991        0.2616105896        1.5973822846
 H         -7.8064724311        1.2035316197       -0.5665835006
 H         -5.6603233729        0.4430725789       -1.5856166977
 H         -2.5674539638       -0.0307503357       -2.0866534262
 H         -3.4180489027        0.2953597725        1.4268490780
 H         -1.9019885237        1.3696165501        3.0572398955
 H          0.2718143743        2.2757472028        2.3153567484
 C          1.3339096434        2.2792987015       -0.1330478848
 H          1.5593452690        3.1570128459        0.4872332464
 C          1.4438112495        2.6730068137       -1.5910523450
 C          0.7715001945        3.9253457002       -2.0652015597
 C          2.2655294579        3.8683399216       -1.9646317265
 H          2.8438339961        3.8304515992       -2.8756959472
 H          2.7469787770        4.4128152564       -1.1653935528
 H          0.3225779209        3.9313394772       -3.0467043407
 H          0.2363436727        4.5093865217       -1.3319645225
 H          1.4744819795        1.8249349716       -2.2639269432
 O          1.6180045191       -0.3692115680       -1.3188651856
