  62
        -98.93123289
 C         -1.7824262820       -0.7980692009        0.4095860212
 C         -2.1904199917        0.4855464446       -0.0360140202
 C         -3.5941061839        0.6270890886       -0.4421411923
 C         -4.4057550534       -0.4440543050       -0.3980700424
 C         -5.8488570809       -0.5017905561       -0.8249666262
 C         -6.8373502262        0.3463264911       -0.0018247948
 C         -7.1054835948        1.7419974242       -0.5784622638
 H         -6.8970656987        1.7254334041       -1.6489234620
 H         -8.1681721249        1.9682992212       -0.4697367829
 C         -6.3347277309        2.8932869059        0.0745491877
 H         -6.4228691055        3.7658029618       -0.5764281606
 H         -6.8084726180        3.1446343541        1.0263326037
 C         -4.8546090296        2.6322727965        0.3548545084
 H         -4.7554079207        1.9777058655        1.2241014839
 H         -4.3873944984        3.5803431265        0.6283871128
 C         -4.0790091280        1.9976061466       -0.8158974161
 H         -4.6988825001        1.9546286586       -1.7102251086
 H         -3.1904879424        2.5911477641       -1.0397180775
 H         -7.7814288646       -0.2005062878        0.0186498819
 H         -6.4848070756        0.4192959292        1.0267050808
 H         -5.9142531577       -0.2147067501       -1.8769500736
 H         -6.1321111735       -1.5535648810       -0.7481714033
 O         -3.9741714884       -1.6635921518        0.0198189442
 C         -2.6655970212       -1.8784446318        0.4411363708
 O         -2.4477540724       -3.0496667839        0.7986303109
 H          2.0630901038        0.0729715538        0.1844145771
 C          1.7878675272       -0.7507824748       -0.4552910292
 C          0.5623174577       -1.3754203463       -0.2773937927
 C          0.2100630328       -2.4139767180       -1.1326627780
 C          1.0735307226       -2.8155975821       -2.1358918074
 C          2.3092509952       -2.2115068588       -2.2884575753
 C          2.6717300794       -1.1740920208       -1.4378227661
 N          3.9142146328       -0.5381315823       -1.5581050650
 S          4.7490918287       -0.0884169284       -0.1760176144
 O          6.1332871775       -0.0264105224       -0.5924897407
 O          4.4521750813       -0.9695561665        0.9281600608
 C          4.1736816638        1.5597570340        0.1682669502
 C          3.6420702097        1.8585967292        1.4068901999
 C          3.2062528297        3.1506089847        1.6551006361
 C          3.3116907586        4.1160546296        0.6660289863
 C          3.8531076254        3.8009843958       -0.5712426255
 C          4.2897971234        2.5111852104       -0.8256519784
 H          4.7186593388        2.2284631207       -1.7725102060
 H          3.9329384294        4.5556264965       -1.3370623946
 H          2.9683641580        5.1196784997        0.8615484334
 H          2.7833474119        3.3965248400        2.6160497064
 H          3.5729944271        1.0769883622        2.1477251549
 H          4.5257736104       -0.9244805283       -2.2622356534
 H          2.9879437979       -2.5396551545       -3.0610835739
 H          0.7876161281       -3.6204696438       -2.7964481933
 H         -0.7393895533       -2.9096352295       -0.9969557125
 C         -0.3358381179       -0.9288521649        0.8474883864
 H         -0.0327745157        0.0969893841        1.1130047649
 C         -0.1542330876       -1.7841800180        2.0941576632
 C          0.4045589644       -3.1714752842        2.0730935312
 C          1.2160800682       -2.0502400785        2.6456475503
 H          1.3548659219       -2.0098032118        3.7158644098
 H          2.0724407784       -1.7120292865        2.0793455540
 H          0.7048720672       -3.5845564978        1.1230878685
 H         -0.0329079585       -3.8984195926        2.7402007776
 H         -0.9388471371       -1.5995354239        2.8218118825
 O         -1.4094545810        1.4734008456       -0.0899899970
