  62
        -98.94524546
 C         -2.6162590620       -1.1297563576        0.3151628986
 C         -2.6344956204       -0.3674527266       -0.8781751917
 C         -3.3488459945        0.9158106230       -0.8064788423
 C         -3.9245755603        1.2879647970        0.3512065964
 C         -4.6323390690        2.5917840807        0.5781874127
 C         -3.6667633670        3.6626962283        1.1049247039
 C         -2.3736373009        3.7810022335        0.2973024980
 H         -1.7835981672        4.5865304961        0.7405095445
 H         -1.7905060713        2.8631345316        0.4104147048
 C         -2.5822845313        4.0630589270       -1.1971480076
 H         -3.5906976981        4.4433549300       -1.3650078829
 H         -1.8837849386        4.8438187825       -1.5053579366
 C         -2.3347021881        2.8605872955       -2.1101853089
 H         -2.2942507870        3.2208757396       -3.1416923704
 H         -1.3591008887        2.4214017638       -1.8815931994
 C         -3.3930803141        1.7512828435       -2.0545509192
 H         -3.1943798599        1.0637056297       -2.8818090386
 H         -4.3859034439        2.1833905247       -2.1955299603
 H         -4.1837040185        4.6238815605        1.1063043779
 H         -3.4041236494        3.4164493234        2.1364312469
 H         -5.4201621489        2.4316361348        1.3161040435
 H         -5.0828884547        2.9216701233       -0.3556467151
 O         -3.8809226103        0.5307419542        1.4776222428
 C         -3.2133778406       -0.6837457308        1.4932164389
 O         -3.2181166235       -1.2593896935        2.6010388803
 O         -2.0858158289       -0.7369476495       -1.9484294365
 C         -1.8821086801       -2.4590490976        0.3534091879
 C         -0.4230925317       -2.2324873973        0.0371781047
 C          0.2808637436       -2.9492907997       -0.9203714180
 C          1.6118137559       -2.6611437162       -1.1712751479
 C          2.2690207480       -1.6656188405       -0.4725308231
 C          1.5760810566       -0.9474070056        0.4937513303
 C          0.2447928200       -1.2387774677        0.7431536632
 H         -0.2967580611       -0.6751645260        1.4945237742
 N          2.2389388687        0.0595609091        1.2210338602
 S          3.0105571107        1.2671919507        0.3408310495
 O          3.0532256602        2.4101407306        1.2274973954
 O          2.3828439800        1.4726951627       -0.9437596002
 C          4.6620215138        0.6374864914        0.1268157589
 C          5.3813236245        0.3030134309        1.2575432487
 C          6.6682491049       -0.1890747035        1.1103405120
 C          7.2121501089       -0.3341766550       -0.1573924451
 C          6.4786363580        0.0105622393       -1.2823029513
 C          5.1898398929        0.5020326953       -1.1421409409
 H          4.5789975821        0.7767257676       -1.9874305801
 H          6.9031424170       -0.1022462298       -2.2669230818
 H          8.2137451439       -0.7182431505       -0.2693753576
 H          7.2416742174       -0.4581660886        1.9827049913
 H          4.9227086015        0.4348939791        2.2232587006
 H          1.6666280174        0.4720858940        1.9441392450
 H          3.3031921811       -1.4354133066       -0.6699327603
 H          2.1448406686       -3.2203060437       -1.9249904497
 H         -0.2149913762       -3.7248324732       -1.4801719455
 H         -1.9535698208       -2.8156069175        1.3914829929
 C         -2.5563490683       -3.4645410837       -0.5552518938
 C         -2.4471661144       -4.9305216385       -0.2653940172
 C         -3.7458266076       -4.2171094548       -0.0422902960
 H         -4.5650972168       -4.4089091292       -0.7186990545
 H         -4.0566033123       -4.0199267291        0.9736583462
 H         -2.3777260322       -5.6168668232       -1.0956608710
 H         -1.8773587848       -5.2269867007        0.6021624524
 H         -2.5756818661       -3.1437131318       -1.5901927940
