  62
        -98.94001997
 C         -1.1208071476       -1.0434152846       -0.5788286297
 C         -2.2605958945       -1.2929329862        0.2239279337
 C         -3.1056849348       -0.1412666662        0.5891454595
 C         -2.7361011065        1.0839968515        0.1734348146
 C         -3.4482325490        2.3934404685        0.3858480480
 C         -4.6760922245        2.5542039987       -0.5263811417
 C         -5.5527403022        1.3107842268       -0.6522200929
 H         -4.9449795578        0.4794110881       -1.0137742977
 H         -6.3105107030        1.5145298516       -1.4133127276
 C         -6.2759261212        0.8919893870        0.6253634993
 H         -6.9183343998        0.0446746844        0.3725286368
 H         -6.9198642257        1.7096293733        0.9570478669
 C         -5.3810525682        0.4765238798        1.7946159908
 H         -6.0207327822       -0.0074450608        2.5386620601
 H         -4.9450335343        1.3444835313        2.2821164142
 C         -4.2909579999       -0.5302930676        1.4397142736
 H         -4.7480603808       -1.3934273969        0.9422915529
 H         -3.8667877971       -0.9262766654        2.3708705868
 H         -4.3197321334        2.8108675866       -1.5267886697
 H         -5.2740466252        3.3886432393       -0.1562964272
 H         -2.7316685105        3.1829694088        0.1484823779
 H         -3.7211517891        2.5021279042        1.4315177714
 O         -1.6215713977        1.2844354764       -0.5813261643
 C         -0.7851093574        0.2526919773       -0.9697658965
 O          0.1858835405        0.6340339011       -1.6524048994
 O         -2.5785580000       -2.4504184995        0.6146058809
 C         -0.2600770000       -2.2459255956       -0.9274562067
 C          0.8523367227       -2.4005715089        0.0825278039
 C          1.0455868475       -3.5958230710        0.7648577218
 C          2.0474459393       -3.7096248058        1.7126029441
 C          2.8543751057       -2.6280712682        2.0168309826
 C          2.6672224155       -1.4285724784        1.3394034993
 C          1.6926089947       -1.3318825215        0.3587033615
 H          1.5634714811       -0.3999216582       -0.1668014742
 N          3.4520411479       -0.3009758945        1.6214488314
 S          2.7352187220        1.2151735179        1.5945845841
 O          3.5867243289        2.0236217719        2.4468400819
 O          1.3445908003        1.1565860891        1.9857289818
 C          2.9188941543        1.7941194361       -0.0765460387
 C          2.0135855829        2.7180307065       -0.5554031453
 C          2.1835061661        3.2222533811       -1.8343987982
 C          3.2498704363        2.7940162269       -2.6078250975
 C          4.1515501978        1.8654394337       -2.1112133306
 C          3.9903175991        1.3609685502       -0.8312733978
 H          4.6675907795        0.6328623651       -0.4165034016
 H          4.9768308638        1.5298709166       -2.7187380623
 H          3.3746013741        3.1826544369       -3.6064456784
 H          1.4754092166        3.9360888563       -2.2238225936
 H          1.1847925233        3.0090832803        0.0709126809
 H          4.0883429887       -0.4010051120        2.3991877519
 H          3.6170707455       -2.7057731970        2.7766611284
 H          2.1884349869       -4.6433574907        2.2355527257
 H          0.3919999448       -4.4316980671        0.5637679795
 H         -0.9228159201       -3.1168960548       -0.8293416056
 C          0.2995539683       -2.2214667260       -2.3359328272
 C          0.6815118411       -3.5143890109       -2.9896905928
 C         -0.5248726528       -2.7620768775       -3.4638787554
 H         -0.4820544403       -2.2589622257       -4.4179285875
 H         -1.5007513779       -3.1588177038       -3.2238049332
 H          1.5569762373       -3.5318517024       -3.6200138453
 H          0.5223107530       -4.4247137561       -2.4319610420
 H          0.9109437847       -1.3519138131       -2.5378765932
