  62
        -98.93800443
 C         -1.5999855289       -1.6196822214        0.2664978968
 C         -1.7758007278       -0.4581834926        1.0582273693
 C         -2.8671570199        0.4611730392        0.6851562577
 C         -3.6203182963        0.1620402167       -0.3897969028
 C         -4.7881050767        0.9227466274       -0.9625499785
 C         -4.3658310207        2.1770681924       -1.7411134407
 C         -3.3220357047        3.0359495096       -1.0342001332
 H         -2.4358343329        2.4278786825       -0.8491112035
 H         -3.0354495260        3.8405499918       -1.7165493508
 C         -3.7858208660        3.6707872178        0.2749435677
 H         -3.0066252761        4.3666082862        0.5964945147
 H         -4.6898994287        4.2549882610        0.0903020274
 C         -4.0564474262        2.7013341428        1.4290091961
 H         -4.0876931124        3.2918288003        2.3491789551
 H         -5.0328654110        2.2336942314        1.3319985526
 C         -2.9866379236        1.6324677534        1.6301467750
 H         -3.1199248075        1.1900880195        2.6245233835
 H         -1.9979891198        2.1045816264        1.6581006700
 H         -3.9466118401        1.8577162471       -2.6984612143
 H         -5.2576742048        2.7718657512       -1.9461622747
 H         -5.2957129768        0.2415222369       -1.6491902416
 H         -5.4889471788        1.1787801677       -0.1733717768
 O         -3.3757142042       -0.9364081538       -1.1582422709
 C         -2.3691939201       -1.8420129234       -0.8752974537
 O         -2.2836627849       -2.7692037890       -1.7033202422
 O         -1.0531341871       -0.1999776777        2.0588136374
 C         -0.5027465185       -2.5796904629        0.6962395483
 C          0.7641026523       -2.2513338838       -0.0546842634
 C          0.9376357817       -2.5934251622       -1.3912603534
 C          2.0970318227       -2.2392596275       -2.0582440276
 C          3.1021500542       -1.5392515658       -1.4126011498
 C          2.9295307520       -1.1790687985       -0.0827494996
 C          1.7680579401       -1.5391670838        0.5867246613
 H          1.6289551621       -1.2439237696        1.6180252165
 N          3.9418794939       -0.4536326805        0.5816361964
 S          4.3039392611        1.0726688532       -0.0020888423
 O          4.7979059582        0.9534192112       -1.3496516485
 O          5.2073990750        1.6511534575        0.9652099289
 C          2.7556528488        1.9576913473        0.0071279557
 C          2.4657553897        2.7852763284        1.0732367648
 C          1.2481167318        3.4450329524        1.0983093687
 C          0.3417046729        3.2567532153        0.0668998204
 C          0.6419070112        2.4113066591       -0.9897475510
 C          1.8608155724        1.7539581270       -1.0243612361
 H          2.1297427424        1.0966232453       -1.8353474740
 H         -0.0686719575        2.2598840827       -1.7873362940
 H         -0.6049217065        3.7734939159        0.0831231155
 H          1.0078758460        4.0998895271        1.9205199513
 H          3.2018136642        2.9065678107        1.8517779157
 H          3.7924005441       -0.3941790841        1.5795643923
 H          4.0047143428       -1.2468786671       -1.9244079872
 H          2.2213427556       -2.5123658638       -3.0954009171
 H          0.1471232426       -3.1153412117       -1.9078630321
 H         -0.3252758619       -2.3537864375        1.7565222403
 C         -0.8808828056       -4.0410528126        0.5773511770
 C         -0.0805436605       -5.0558013653        1.3357454480
 C         -1.4830220021       -4.7390040509        1.7582613346
 H         -2.2548891480       -5.4732207263        1.5829819436
 H         -1.6259248744       -4.1644587643        2.6620029493
 H          0.1142618541       -6.0098649427        0.8708176863
 H          0.7285975342       -4.6947495838        1.9527311028
 H         -1.2506244383       -4.3197609330       -0.3999246188
