  62
        -98.94648254
 C         -1.1093283115       -1.8330888226       -0.3049069869
 C         -0.3316269981       -2.0237393542        0.8661796302
 C          1.0594378689       -2.4553470531        0.6447305079
 C          1.5231964604       -2.6416642177       -0.6032300171
 C          2.8924405425       -3.1373240476       -0.9838030100
 C          3.9844496061       -2.0596498427       -1.0082518163
 C          4.4430812494       -1.5681238661        0.3650024542
 H          4.6911885751       -2.4224195252        0.9956091954
 H          5.3606721317       -0.9964906012        0.2135755718
 C          3.4210578287       -0.6749143611        1.0803921507
 H          3.9219071922        0.2014606761        1.4994454231
 H          2.6964272012       -0.2992056349        0.3555103180
 C          2.6642030959       -1.3435929207        2.2280121720
 H          3.3565336840       -1.5661100869        3.0439247831
 H          1.9256662479       -0.6272863464        2.5985262915
 C          1.9337329328       -2.6381088502        1.8480816713
 H          1.2898987206       -2.9214233752        2.6848644492
 H          2.6544578860       -3.4383552448        1.6751193229
 H          4.8475758749       -2.4859071001       -1.5245289285
 H          3.6295391292       -1.2095185853       -1.5950062900
 H          3.1885225222       -3.9375799516       -0.3043871883
 H          2.7984460023       -3.5537052999       -1.9892073336
 O          0.7506547037       -2.4325347087       -1.7023257009
 C         -0.5656860710       -2.0193031519       -1.5801765588
 O         -1.1489968198       -1.8599994168       -2.6708335950
 O         -0.7519030642       -1.8678607489        2.0419145600
 C         -2.5605354719       -1.3754903998       -0.3037276418
 C         -2.6368617351        0.1325172734       -0.3717519156
 C         -3.4271406029        0.7605547165       -1.3271434584
 C         -3.4702540320        2.1405088273       -1.4087853287
 C         -2.7004785580        2.9169108093       -0.5618606521
 C         -1.9040419137        2.2993501745        0.3958901332
 C         -1.8999226442        0.9157317639        0.5055848594
 H         -1.2974909047        0.4518363896        1.2717579268
 N         -1.0880130182        3.0643222151        1.2486227123
 S          0.5264855952        2.6486024809        1.4130575164
 O          0.6546840112        1.4388339165        2.1780798713
 O          1.1425943728        3.8300148132        1.9781212643
 C          1.1103959976        2.4164808663       -0.2569004272
 C          1.6661195940        3.4961207404       -0.9156179199
 C          2.0727912911        3.3448777689       -2.2311996324
 C          1.9049268977        2.1253424283       -2.8700890123
 C          1.3418066857        1.0517190392       -2.1980151155
 C          0.9437026344        1.1947525993       -0.8777669531
 H          0.5057955898        0.3722069304       -0.3337360676
 H          1.1975765640        0.1022957048       -2.6916860265
 H          2.2133794052        2.0064205365       -3.8967480542
 H          2.5146773002        4.1764100451       -2.7560698553
 H          1.7809722721        4.4242524360       -0.3794497786
 H         -1.1731806155        4.0615722329        1.1100312827
 H         -2.7111856577        3.9934384172       -0.6397732641
 H         -4.0915134973        2.6159682575       -2.1520835320
 H         -3.9972549123        0.1584414306       -2.0185682481
 H         -2.9968658746       -1.7678930733       -1.2332936897
 C         -3.3817533934       -1.8932244207        0.8598108512
 C         -4.8645068679       -2.0323233706        0.6966321811
 C         -4.0004069927       -3.2544676852        0.7739703346
 H         -4.0332331016       -3.8601402526        1.6669482930
 H         -3.8361138327       -3.8214282372       -0.1311004013
 H         -5.4974769418       -1.7959117986        1.5380252374
 H         -5.2917020798       -1.7759578888       -0.2609633413
 H         -3.0078550352       -1.5779548630        1.8248356848
