  62
        -98.94674757
 C         -1.5709699547       -1.4957271652       -0.0079829610
 C         -2.4098283012       -0.9074514038        0.9674596096
 C         -3.1243049177        0.3031990387        0.5493808104
 C         -2.9543821641        0.7820184371       -0.6970696142
 C         -3.6747949925        1.9613576787       -1.2934612148
 C         -3.0450769092        3.3227060434       -0.9715295668
 C         -3.2087766569        3.7926956303        0.4737428174
 H         -2.9053714527        4.8408089235        0.5082070799
 H         -4.2616406156        3.7511133510        0.7544478861
 C         -2.3716015128        3.0016092584        1.4885855669
 H         -1.5951931939        2.4410120887        0.9616741735
 H         -1.8633542060        3.6941590652        2.1633258135
 C         -3.1820807121        2.0371800070        2.3551180417
 H         -3.8731156502        2.6026383563        2.9844013312
 H         -2.4928148274        1.5013319598        3.0133347881
 C         -3.9848921026        0.9978895707        1.5610168099
 H         -4.3543842351        0.2427491176        2.2593535579
 H         -4.8381920907        1.4723878815        1.0768164053
 H         -3.5131145254        4.0608362639       -1.6267339115
 H         -1.9833969327        3.2775604425       -1.2163206419
 H         -4.7148350269        1.9528829034       -0.9651443652
 H         -3.6528251116        1.8206832351       -2.3761827166
 O         -2.1118027709        0.2060263676       -1.5942021323
 C         -1.3875559392       -0.9332006672       -1.2717289980
 O         -0.6393682288       -1.3397445183       -2.1783857562
 O         -2.5589205279       -1.3759548694        2.1292103566
 C         -0.8171265169       -2.7661820191        0.3414091994
 C          0.6690216675       -2.5169830538        0.2785340669
 C          1.5565251710       -3.3264814687       -0.4168440039
 C          2.9083170279       -3.0252202235       -0.4437143290
 C          3.4045630477       -1.9215628231        0.2246599468
 C          2.5246063018       -1.1068304335        0.9274982614
 C          1.1727130581       -1.4098041691        0.9522464905
 H          0.4892934739       -0.7738198935        1.5018546289
 N          3.0193835559        0.0235967425        1.6135383747
 S          3.7227553480        1.2364748956        0.6991150939
 O          4.8664220420        0.6961258719        0.0106233712
 O          3.9818394431        2.3145571225        1.6255812615
 C          2.4798766625        1.7388170929       -0.4776959221
 C          2.2017795226        0.9191742596       -1.5537894498
 C          1.2107178758        1.2976665097       -2.4452223013
 C          0.5263069636        2.4874062941       -2.2515670860
 C          0.8189677302        3.3013437828       -1.1672543339
 C          1.7982306589        2.9204105107       -0.2645030737
 H          2.0560038988        3.5208872940        0.5931855946
 H          0.2894681938        4.2297835771       -1.0205461808
 H         -0.2402288891        2.7762790551       -2.9540651087
 H          0.9638321244        0.6511327975       -3.2717090595
 H          2.7550657721        0.0036125371       -1.6848092287
 H          2.3396159481        0.4362475080        2.2372056566
 H          4.4510591067       -1.6650789933        0.1981638651
 H          3.5857769147       -3.6609302514       -0.9934796517
 H          1.1912495851       -4.1912211635       -0.9455040477
 H         -1.0808677316       -2.9831815528        1.3874873082
 C         -1.2819081199       -3.9167113286       -0.5256761317
 C         -1.1905672733       -5.3250634747       -0.0213985459
 C         -2.5263607048       -4.6567136866       -0.1401471025
 H         -3.1984634975       -4.9780578880       -0.9215992654
 H         -3.0277450852       -4.3475117317        0.7654910510
 H         -0.9475926488       -6.1098602743       -0.7217490039
 H         -0.7863430837       -5.4766463155        0.9680556725
 H         -1.1150083763       -3.7374557613       -1.5816904029
