  62
        -98.94686114
 C          2.0002019894        1.1400722096       -0.5274125500
 C          1.4838405492       -0.0071529806       -1.1762403196
 C          2.2546308092       -1.2484586306       -1.0063283295
 C          3.3730884294       -1.2413897504       -0.2611267798
 C          4.2182639694       -2.4445757604        0.0390183303
 C          3.7719319996       -3.1317952001        1.3366218206
 C          2.2680039996       -3.3975200800        1.4154880710
 H          2.0803906298       -3.9259951498        2.3532776212
 H          1.7298639197       -2.4478450400        1.4760245209
 C          1.7025988293       -4.2162374902        0.2467021713
 H          2.5103138492       -4.7399439704       -0.2671998588
 H          1.0258283894       -4.9734428501        0.6484311616
 C          0.8996417091       -3.3929410804       -0.7622639587
 H          0.1738766093       -2.7784216903       -0.2229721187
 H          0.3405390290       -4.0840964206       -1.3994343784
 C          1.7265927990       -2.4834220307       -1.6807186791
 H          2.5411553589       -3.0558636008       -2.1299466691
 H          1.0706113888       -2.1327352708       -2.4827524490
 H          4.3132749796       -4.0753561601        1.4302295807
 H          4.0502379098       -2.4951137999        2.1798036604
 H          4.1558375891       -3.1427780806       -0.7934379095
 H          5.2535703094       -2.1172179504        0.1504924800
 O          3.8464053696       -0.1214341003        0.3429942299
 C          3.1684661196        1.0800150597        0.2388110598
 O          3.7076414398        2.0224039798        0.8550689094
 H         -0.8308608705        0.9114310898       -0.1190814093
 C         -0.7309431603        1.6639302300        0.6446264205
 C          0.3108688497        2.5791565999        0.5742832600
 C          0.4249501700        3.5448398001        1.5666997498
 C         -0.4754388498        3.5818935804        2.6164900000
 C         -1.4858072498        2.6429488505        2.7060903904
 C         -1.6092070601        1.6706792503        1.7177444007
 N         -2.6251879601        0.7100261503        1.7972854311
 S         -2.4027617903       -0.8828501098        1.3103627115
 O         -3.1684613801       -1.6565610595        2.2684194518
 O         -1.0049843603       -1.2172835599        1.1987236412
 C         -3.2491625506       -0.9494744001       -0.2545940883
 C         -4.6313375106       -0.9570892000       -0.2128646780
 C         -5.3415360009       -0.9867445703       -1.4007040479
 C         -4.6608410812       -1.0087832306       -2.6093500980
 C         -3.2757038112       -1.0033409307       -2.6338556583
 C         -2.5572810609       -0.9731884104       -1.4471370185
 H         -1.4781904209       -0.9539540105       -1.4498120387
 H         -2.7403308114       -1.0174895009       -3.5698993684
 H         -5.2119977414       -1.0307246908       -3.5364209079
 H         -6.4195114609       -0.9921152202       -1.3825147976
 H         -5.1186250404       -0.9535851698        0.7480262021
 H         -3.1738874599        0.7535674006        2.6434452212
 H         -2.1733990796        2.6539294107        3.5384964106
 H         -0.3780256895        4.3364661406        3.3824098698
 H          1.2385388400        4.2540199501        1.5234623595
 C          1.3215720395        2.5025819496       -0.5464903102
 H          2.1144251596        3.2313162496       -0.3272133705
 C          0.6909079992        2.8710726793       -1.8741174501
 C          0.4785396692        4.3190304793       -2.1948499504
 C          1.5271051390        3.5350283490       -2.9243795304
 H          1.3559072588        3.2749032788       -3.9579618903
 H          2.5641641091        3.7276052490       -2.6896589907
 H         -0.4162667209        4.6011631692       -2.7277610603
 H          0.8057120794        5.0470471194       -1.4678688406
 H         -0.0573940109        2.1657653793       -2.2082512198
 O          0.4393126391       -0.0217256107       -1.8795503694
