  62
        -98.94512722
 C         -1.5406359104        0.8134603018       -0.0404131856
 C         -2.8196377852        1.4126259011       -0.1130602730
 C         -3.9112872320        0.5390559907       -0.5643721506
 C         -3.6386161029       -0.7366280058       -0.8952529549
 C         -4.6635016592       -1.7497552814       -1.3145157291
 C         -5.2004744784       -2.5283551944       -0.1053606427
 C         -5.6369555481       -1.6381495073        1.0582858960
 H         -6.0262145626       -2.2929458163        1.8409971454
 H         -4.7603076729       -1.1321624444        1.4691371234
 C         -6.6992236873       -0.5918666020        0.6932017008
 H         -7.1855885109       -0.8681179073       -0.2430901177
 H         -7.4683159490       -0.5878825060        1.4685544076
 C         -6.1690436856        0.8391197629        0.5851387914
 H         -5.6011186542        1.0885365901        1.4851023067
 H         -7.0258150259        1.5169675222        0.5413756959
 C         -5.2894969348        1.1339731299       -0.6365040356
 H         -5.8026918528        0.8126103452       -1.5452379702
 H         -5.1458645731        2.2173738735       -0.6881585892
 H         -6.0433673181       -3.1388932990       -0.4343714264
 H         -4.4146362331       -3.1975042498        0.2521471694
 H         -5.4802720232       -1.2438835260       -1.8256253786
 H         -4.1920255792       -2.4498000567       -2.0061812416
 O         -2.3912311954       -1.2684761622       -0.8390831760
 C         -1.3100528736       -0.5139947289       -0.4037984820
 O         -0.2269199218       -1.1245893324       -0.3907469078
 H          2.3384151723        1.1615797670        0.7788028808
 C          2.0582691271        1.3513706843       -0.2427648008
 C          0.7423472702        1.6281845890       -0.5758946207
 C          0.4373438097        1.9119029760       -1.9052136711
 C          1.4204467722        1.8951387413       -2.8745670892
 C          2.7285213289        1.5859971372       -2.5432160109
 C          3.0461670379        1.3166060716       -1.2182621056
 N          4.3642285657        1.0222950304       -0.8469421343
 S          4.6933851562        0.0087155072        0.4370335366
 O          4.4915764450        0.7057640584        1.6829872086
 O          6.0463631060       -0.4430173038        0.1880233380
 C          3.5678742276       -1.3680769939        0.3100087712
 C          3.5350425238       -2.0865139667       -0.8676777678
 C          2.6800494326       -3.1709323228       -0.9658233857
 C          1.8795347809       -3.5194211130        0.1099190117
 C          1.9281642523       -2.7915202820        1.2868656571
 C          2.7786466318       -1.7037808731        1.3896810177
 H          2.8417251041       -1.1064189697        2.2859625965
 H          1.2984182190       -3.0611062190        2.1200213602
 H          1.2075249119       -4.3590668964        0.0288844797
 H          2.6343720690       -3.7376118133       -1.8821241160
 H          4.1740472017       -1.7962428222       -1.6861028869
 H          5.0108311733        0.8952146132       -1.6107756954
 H          3.4961905169        1.5594831862       -3.3012815368
 H          1.1668028863        2.1149379669       -3.9007499867
 H         -0.5866313834        2.1403045941       -2.1683747037
 C         -0.3643329869        1.6378007312        0.4481878656
 H         -0.7415917717        2.6670706908        0.5432060413
 C          0.0771534062        1.1503402584        1.8123876836
 C          0.7414315169        2.0876050498        2.7745611426
 C         -0.6579519370        1.6167418388        3.0315532505
 H         -0.8286969037        0.9134519970        3.8328444781
 H         -1.4678055738        2.3166450163        2.8850212483
 H          1.5405081006        1.7109222154        3.3959181145
 H          0.8820487640        3.1102921484        2.4583842383
 H          0.4091852312        0.1176968170        1.7925090669
 O         -3.0371176692        2.6198274737        0.1801364741
