  62
        -98.94154073
 C         -1.9989033417       -0.9407523608       -0.4345595481
 C         -2.5460147216        0.2864567052       -0.8876013839
 C         -4.0073799999        0.4175838884       -0.7691059837
 C         -4.7292881393       -0.6062648095       -0.2801153414
 C         -6.2127214428       -0.5816294526       -0.0540436582
 C         -6.5500852628       -0.1038576403        1.3653778211
 C         -5.8302983094        1.1821156132        1.7718083206
 H         -6.1678017623        1.4394438536        2.7781739475
 H         -4.7575993209        0.9847912511        1.8342561255
 C         -6.0735800777        2.3702685664        0.8306610672
 H         -6.9587732728        2.1844147530        0.2213273062
 H         -6.2758819340        3.2582448559        1.4333019239
 C         -4.8932210906        2.7098488042       -0.0813442633
 H         -3.9839126428        2.8068007303        0.5172407716
 H         -5.0873459631        3.6830328968       -0.5400154698
 C         -4.6197549810        1.7153017976       -1.2166797040
 H         -5.5390971817        1.5347022223       -1.7771794058
 H         -3.8897572410        2.1733072076       -1.8904003171
 H         -7.6294850941        0.0440933624        1.4323193502
 H         -6.2705399317       -0.8900571057        2.0706795648
 H         -6.6768300036        0.0729664364       -0.7892149448
 H         -6.5975403031       -1.5940445869       -0.1880752001
 O         -4.1733255288       -1.7807312987        0.1139550202
 C         -2.8037635030       -1.9719757990        0.0543020588
 O         -2.4265460206       -3.0933375336        0.4538138545
 H          2.0287808767       -1.7236797911        0.2034087448
 C          1.6118669181       -0.9105892315        0.7754445631
 C          0.2980202121       -0.5094948163        0.5650416372
 C         -0.2102349639        0.5221002327        1.3433340528
 C          0.5793654441        1.1394518146        2.2978613229
 C          1.8914030200        0.7489657250        2.4900015036
 C          2.4115353289       -0.2867626727        1.7218563620
 N          3.7349308269       -0.7219199178        1.9067092141
 S          4.7465002468       -0.9090357662        0.5860362395
 O          4.2772926592       -1.9880858647       -0.2432276890
 O          6.0660548100       -1.0622844837        1.1556240021
 C          4.6346326615        0.6480349736       -0.2759362257
 C          3.6074707384        0.8540608158       -1.1752446352
 C          3.4834730836        2.0982955770       -1.7734840148
 C          4.3838154237        3.1071504755       -1.4675827776
 C          5.4131653548        2.8822481545       -0.5658342735
 C          5.5377605038        1.6438588895        0.0423183038
 H          6.3242576914        1.4246410230        0.7462949956
 H          6.1137587620        3.6679389845       -0.3329968631
 H          4.2818183314        4.0731775995       -1.9364475768
 H          2.6794262209        2.2734547593       -2.4706733823
 H          2.9250679684        0.0498153327       -1.3941049249
 H          4.2223460838       -0.2477919863        2.6535651056
 H          2.5050980080        1.2323103544        3.2347857935
 H          0.1666120560        1.9384410431        2.8949607464
 H         -1.2302179699        0.8438408509        1.1998176698
 C         -0.5120772714       -1.2273538887       -0.4927569183
 H         -0.4076512446       -2.3057767265       -0.3029919318
 C          0.0450119206       -0.9327845625       -1.8771910912
 C          1.0912754826       -1.8119292407       -2.4903288845
 C         -0.3146344263       -1.8486372468       -3.0076144280
 H         -0.5250455861       -1.4192537803       -3.9753862303
 H         -0.9218945540       -2.7110917083       -2.7716548530
 H          1.4465083393       -2.6613444824       -1.9255201404
 H          1.8505998069       -1.3581496293       -3.1102428592
 H          0.0814675181        0.1277646076       -2.0942454011
 O         -1.8654879603        1.2343776631       -1.3580171758
