  62
        -98.94460923
 C          1.9825502418        0.7863662221        0.5442997270
 C          1.9833763939        0.0866605090       -0.6861155306
 C          2.1175283720       -1.3729614504       -0.5921877878
 C          2.1636793205       -1.9534458077        0.6203795420
 C          2.3327904888       -3.4254412683        0.8611061958
 C          3.8152454632       -3.8031357755        0.9919171838
 C          4.6957625204       -3.2438750210       -0.1255156702
 H          4.7141365196       -2.1542351726       -0.0511640271
 H          5.7132358464       -3.5968997551        0.0552287496
 C          4.2575928861       -3.6470993449       -1.5402664298
 H          5.1402377620       -3.9501791260       -2.1072217692
 H          3.5916990034       -4.5091554323       -1.4898598789
 C          3.5789871690       -2.5305001911       -2.3359761101
 H          3.5076253741       -2.8505592269       -3.3787794726
 H          4.2009238947       -1.6323270540       -2.3103507860
 C          2.1653672370       -2.1483871066       -1.8782488571
 H          1.7319431584       -1.4894517568       -2.6364975685
 H          1.5416611140       -3.0422362719       -1.8097183228
 H          4.1858563466       -3.4191652459        1.9451052815
 H          3.8929749142       -4.8916852374        1.0098902759
 H          1.8156900707       -3.6816591288        1.7876047444
 H          1.8753662847       -3.9742289235        0.0400052400
 O          2.1115580961       -1.2516225035        1.7826429762
 C          2.0215108131        0.1305060216        1.7729705751
 O          1.9891755520        0.6532068664        2.9074237490
 O          1.8858905359        0.6534580283       -1.8065819308
 C          1.8281815885        2.2968230821        0.5506047306
 C          0.5343516912        2.6634962292       -0.1363502891
 C          0.4200800291        3.6847866202       -1.0701155668
 C         -0.7946774986        3.9351449158       -1.6853697228
 C         -1.9099104861        3.1727973300       -1.3926588076
 C         -1.8100901247        2.1621534353       -0.4420440922
 C         -0.6001593504        1.9304005778        0.1886988236
 H         -0.5329011364        1.1409350515        0.9246487886
 N         -2.9289020904        1.3843833934       -0.0943152546
 S         -2.6798410607       -0.2250540569        0.3519659849
 O         -2.3157919216       -0.2685085742        1.7473477535
 O         -1.7773733175       -0.8763968023       -0.5705502093
 C         -4.3362212961       -0.8561427933        0.1508214448
 C         -4.6633488145       -1.5619358493       -0.9913083004
 C         -5.9645889295       -2.0126825027       -1.1511404737
 C         -6.9117340535       -1.7482255837       -0.1734367392
 C         -6.5682238489       -1.0388836309        0.9681096750
 C         -5.2689132384       -0.5868758860        1.1348892283
 H         -4.9516148783       -0.0401443902        2.0075358937
 H         -7.3063817408       -0.8371674519        1.7274053326
 H         -7.9235667834       -2.0991057678       -0.3007376962
 H         -6.2332651059       -2.5668816161       -2.0359732733
 H         -3.8909293844       -1.7475931974       -1.7204742019
 H         -3.6864774432        1.4699077256       -0.7586809347
 H         -2.8497394052        3.3550020236       -1.8910911514
 H         -0.8688603723        4.7255725903       -2.4168077128
 H          1.2845122361        4.2746158020       -1.3273874954
 H          1.7505357335        2.5911010864        1.6081512008
 C          3.0472275168        2.9594295686       -0.0562146899
 C          3.4667097864        4.3263064455        0.3920498540
 C          4.2729985290        3.1272693784        0.7886909888
 H          5.2393838195        2.9781191623        0.3310389348
 H          4.2171836067        2.7855838781        1.8123582213
 H          3.8846296927        5.0028711950       -0.3379914194
 H          2.8698924969        4.8076268809        1.1519875712
 H          3.1885051448        2.6920562142       -1.0971158294
