  62
        -98.94586959
 C          1.6850454800        1.2987857591        0.4236571293
 C          1.2967531996        0.2182182491       -0.4040560005
 C          1.8767719894       -1.0874796910       -0.0688138705
 C          2.6621708697       -1.2146245011        1.0145491193
 C          3.3018756196       -2.4858933511        1.5029576093
 C          4.6217798593       -2.8332779714        0.8000818690
 C          4.4835571589       -3.3263342015       -0.6409643009
 H          5.4521148487       -3.7378268417       -0.9318424411
 H          3.7594205187       -4.1408454714       -0.6754802207
 C          4.0866609388       -2.2379508915       -1.6479950109
 H          4.7205628386       -2.3135701617       -2.5342093611
 H          4.2663036491       -1.2539763515       -1.2087493611
 C          2.6347402087       -2.3113870713       -2.1206130006
 H          2.4537986987       -1.4754612314       -2.8007776606
 H          2.4766743284       -3.2384934813       -2.6756588405
 C          1.5995566290       -2.2368033110       -0.9901963003
 H          0.6127707889       -2.0785382209       -1.4321241701
 H          1.5799142090       -3.1724407910       -0.4313918302
 H          5.1043315393       -3.6189597115        1.3860225889
 H          5.2709769595       -1.9548635615        0.8249014287
 H          3.5036591398       -2.3419665511        2.5668796092
 H          2.5980500994       -3.3121114210        1.3951995895
 O          2.9569230001       -0.1660490410        1.8293301492
 C          2.4781756102        1.1048905190        1.5561654292
 O          2.8195768706        1.9693616290        2.3900915090
 H         -0.6439489097        1.4411207596        1.6849925299
 C         -1.1124619298        1.9123847596        0.8322951700
 C         -0.3360751999        2.6279055194       -0.0719570303
 C         -0.9641798701        3.2226472594       -1.1582756602
 C         -2.3296503101        3.0835485996       -1.3408853398
 C         -3.0897917901        2.3316286998       -0.4643280296
 C         -2.4693536799        1.7337144998        0.6267891703
 N         -3.1883493298        0.9285060500        1.5370580806
 S         -2.7853905301       -0.6988452400        1.5873915906
 O         -3.6665499000       -1.2737199098        2.5821476209
 O         -1.3723756701       -0.8508554903        1.8216417703
 C         -3.2390722306       -1.3213604301       -0.0227132592
 C         -4.4299901108       -2.0106082899       -0.1531890889
 C         -4.8211932211       -2.4455659199       -1.4088094387
 C         -4.0228491114       -2.1758596002       -2.5104253790
 C         -2.8340013512       -1.4787020104       -2.3624787193
 C         -2.4326698108       -1.0431221403       -1.1081879794
 H         -1.5081320407       -0.5022320205       -0.9736903597
 H         -2.2079724114       -1.2636460705       -3.2137457095
 H         -4.3275269017       -2.5105813902       -3.4895092589
 H         -5.7450725713       -2.9891710598       -1.5241874985
 H         -5.0155781506       -2.1974986197        0.7325497113
 H         -4.1921526598        1.0121242602        1.4453682108
 H         -4.1496229401        2.1996217800       -0.6229930293
 H         -2.8039645303        3.5496848896       -2.1909680098
 H         -0.3830164001        3.7766765592       -1.8768483404
 C          1.1473795402        2.7022725891        0.1980536893
 H          1.2860671805        3.2173003692        1.1636916393
 C          1.9163077701        3.5064239089       -0.8402175109
 C          3.3450926299        3.1860883686       -1.1612742212
 C          2.2750529896        2.9381327287       -2.1792084109
 H          2.2305448495        3.5878343887       -3.0410181210
 H          1.9811570794        1.9206020388       -2.3806106708
 H          4.0303027400        4.0056333585       -1.3186366715
 H          3.7905081399        2.3356310586       -0.6650439713
 H          1.6606944703        4.5610130490       -0.8082392409
 O          0.5072831994        0.3254644591       -1.3783883803
