  62
        -98.93909202
 C         -2.5370399010       -1.1573106699        0.6204559648
 C         -3.4120045523       -0.9770186257       -0.4793470049
 C         -4.4620280099        0.0398457162       -0.2990799553
 C         -4.5235228682        0.7395923817        0.8473213629
 C         -5.4999152981        1.8437219299        1.1297892112
 C         -4.9299405461        3.2087486635        0.7194518314
 C         -4.3443016004        3.2352072071       -0.6924939766
 H         -3.4616898863        2.5917479155       -0.7242605414
 H         -4.0027449348        4.2550575177       -0.8829446835
 C         -5.3240787020        2.8090957369       -1.7948285742
 H         -5.2400106828        3.5108848244       -2.6272540709
 H         -6.3477653460        2.8684862887       -1.4233889355
 C         -5.0707832512        1.4116263938       -2.3630550162
 H         -4.0203711607        1.3184118436       -2.6496921206
 H         -5.6693347574        1.3006124088       -3.2710778710
 C         -5.4233035048        0.2407916597       -1.4370802126
 H         -5.3791740181       -0.6762835905       -2.0317468475
 H         -6.4422029276        0.3604646155       -1.0636282938
 H         -4.1384309968        3.4793005696        1.4224951688
 H         -5.7246171471        3.9527542295        0.7999881361
 H         -6.4260738657        1.6488629545        0.5925803645
 H         -5.7067576198        1.8538917747        2.2013193743
 O         -3.6571454280        0.5487487333        1.8760310166
 C         -2.6464694229       -0.3909371153        1.7838697468
 O         -1.9192256663       -0.4619294580        2.7966439272
 H          0.9583020354       -1.7219282571        1.8577451950
 C          0.9674492333       -1.3492089105        0.8421346941
 C         -0.1626718948       -1.4988269615        0.0532865664
 C         -0.1515591721       -0.9769045087       -1.2373777568
 C          0.9751173203       -0.3402611400       -1.7234270709
 C          2.1061228398       -0.2025880580       -0.9362672415
 C          2.0963251835       -0.6976983158        0.3601328512
 N          3.2365705816       -0.5583208394        1.1678302965
 S          4.0118652230        0.9300259638        1.2201928321
 O          4.7063965358        0.9450706585        2.4890205566
 O          3.0949641953        2.0187648076        0.9743548576
 C          5.2111031546        0.8271269050       -0.0928957513
 C          6.0601488834       -0.2621044338       -0.1178455503
 C          7.0059728055       -0.3500346069       -1.1266400984
 C          7.0899407463        0.6488951464       -2.0852371117
 C          6.2332932661        1.7381462918       -2.0439156843
 C          5.2834069593        1.8312188907       -1.0383981847
 H          4.5920584971        2.6562498462       -0.9703385477
 H          6.3001554786        2.5142906003       -2.7893313845
 H          7.8271549418        0.5781066754       -2.8693172184
 H          7.6735594211       -1.1957986809       -1.1624338612
 H          5.9652845552       -1.0147619916        0.6467553801
 H          3.1252871949       -0.9360044746        2.0978586848
 H          2.9830841445        0.2999495699       -1.3102416065
 H          0.9740829520        0.0565196657       -2.7274317413
 H         -1.0380441645       -1.0727669230       -1.8461966974
 C         -1.3937753410       -2.1605649591        0.6164346995
 H         -1.1983284011       -2.3713088211        1.6797643341
 C         -1.7493615728       -3.4825779316       -0.0501866059
 C         -1.0463935292       -4.0240021142       -1.2556459615
 C         -0.8148552421       -4.6490604132        0.0846148956
 H         -1.2284107356       -5.6256961511        0.2854904751
 H          0.1363312589       -4.4651711831        0.5620694255
 H         -0.2474717308       -3.4438987060       -1.6891759151
 H         -1.6429858751       -4.5550708054       -1.9815193056
 H         -2.8088466854       -3.7023208889        0.0227468070
 O         -3.3409717551       -1.6191056153       -1.5573788186
