  62
        -98.94091226
 C         -2.2909107222       -0.4977637574        0.1929398825
 C         -3.5550660882       -1.0312902588        0.5404895362
 C         -4.6620030559       -0.0686884555        0.6083834467
 C         -4.4168055042        1.2321384217        0.3660596334
 C         -5.4606197509        2.3103781806        0.3464491578
 C         -6.0365938385        2.4997005266       -1.0639470506
 C         -6.4675769979        1.1957468901       -1.7355330253
 H         -6.8847203676        1.4552024068       -2.7109863690
 H         -5.5835866910        0.5802674379       -1.9181120249
 C         -7.4966751908        0.3812855800       -0.9392112261
 H         -7.9753286674        1.0171677655       -0.1936792141
 H         -8.2765801417        0.0391404893       -1.6226709775
 C         -6.9277959605       -0.8626045852       -0.2542133659
 H         -6.3662183025       -1.4559107725       -0.9802020149
 H         -7.7656920959       -1.4743257116        0.0904543679
 C         -6.0233720459       -0.6018838707        0.9569268467
 H         -6.5301925940        0.0635385054        1.6585724612
 H         -5.8503007067       -1.5604348296        1.4547663977
 H         -6.8895060559        3.1778095949       -1.0000779377
 H         -5.2737160092        2.9704431455       -1.6884774587
 H         -6.2556636119        2.0519026104        1.0431151243
 H         -4.9960247917        3.2439503067        0.6680672586
 O         -3.1829389760        1.7116002714        0.0613910778
 C         -2.0909248050        0.8620729308       -0.0425180865
 O         -1.0231884978        1.4323600535       -0.3401139911
 H          1.5709139819       -0.9782785936       -0.4544609153
 C          1.3041298236       -0.8144543485        0.5749952516
 C         -0.0003559890       -1.0002783226        1.0038515892
 C         -0.3007912199       -0.7826646861        2.3465047343
 C          0.6753179017       -0.3646685844        3.2288152402
 C          1.9703560448       -0.1509895127        2.7899288099
 C          2.2855712407       -0.3803070329        1.4563729444
 N          3.6116606347       -0.2214008673        1.0072459513
 S          3.9390482535        0.5555182137       -0.4560050630
 O          3.5231531330        1.9402843738       -0.3958129183
 O          3.4203321346       -0.2295075388       -1.5456836621
 C          5.7202187308        0.4530423163       -0.4451895862
 C          6.4736372002        1.5690022192       -0.1359265303
 C          7.8554355389        1.4594833617       -0.1109412603
 C          8.4564298116        0.2419339674       -0.3916168776
 C          7.6866663182       -0.8697548123       -0.7013819928
 C          6.3052680490       -0.7664217092       -0.7294101529
 H          5.6670055728       -1.5997685024       -0.9722378036
 H          8.1577212929       -1.8142480519       -0.9212411613
 H          9.5316214626        0.1592030659       -0.3711142050
 H          8.4562961923        2.3225775297        0.1264554602
 H          5.9628820617        2.4964154784        0.0682164200
 H          4.1994714983        0.1848412766        1.7246186841
 H          2.7311586938        0.1888084535        3.4766883166
 H          0.4260977464       -0.1934716166        4.2654439341
 H         -1.3165590848       -0.9372171263        2.6852082812
 C         -1.1057566861       -1.4386163135        0.0761718492
 H         -1.4748670459       -2.4175752360        0.4176584369
 C         -0.6733492990       -1.5606679426       -1.3695730198
 C         -0.0083445984       -2.8125391931       -1.8553274732
 C         -1.4121946134       -2.4985408708       -2.2746947510
 H         -1.5926927812       -2.1949138946       -3.2950487580
 H         -2.2169440049       -3.0733692281       -1.8398531140
 H          0.7821138577       -2.7211662181       -2.5850753714
 H          0.1406689855       -3.6068865905       -1.1397247726
 H         -0.3459969875       -0.6146582303       -1.7890765813
 O         -3.7461029681       -2.2524729576        0.7871825779
