  62
        -98.93520636
 C         -1.8652087300       -0.7139604197        0.0545170399
 C         -2.6304494102       -0.1309957290        1.0929748694
 C         -3.7716686302        0.7175902706        0.6987653386
 C         -3.9782057400        0.9512139397       -0.6103351916
 C         -5.0898231299        1.7369268792       -1.2529461223
 C         -6.4201755399        0.9664068691       -1.2734613919
 C         -6.7669100401        0.2461102100        0.0270867885
 H         -7.6673961300       -0.3471951202       -0.1522978912
 H         -5.9648777000       -0.4514680698        0.2754489791
 C         -7.0376208003        1.1553485408        1.2234468778
 H         -7.3534803504        0.5159290514        2.0517949482
 H         -7.8685687003        1.8229365206        0.9846405372
 C         -5.8567228504        2.0027858312        1.7017180374
 H         -6.1214875506        2.4038713719        2.6845417671
 H         -5.7003467003        2.8596143008        1.0517174568
 C         -4.5515705204        1.2342847814        1.8839405481
 H         -3.8516410005        1.8655288919        2.4451377778
 H         -4.7340293804        0.3662260719        2.5278334487
 H         -6.3617832797        0.2144624585       -2.0643002314
 H         -7.2189500299        1.6641105788       -1.5303591626
 H         -4.7828445398        1.9288296084       -2.2835527424
 H         -5.2044939401        2.6969420295       -0.7582552830
 O         -3.1666309198        0.4336554190       -1.5748553811
 C         -2.1021215298       -0.4051397607       -1.2855550303
 O         -1.4696565097       -0.7821595614       -2.2884496600
 O         -2.3769399704       -0.3130609681        2.3149673596
 C         -0.7159079600       -1.6236999994        0.4501175008
 C          0.5378196201       -1.2235709398       -0.2852506994
 C          1.2132209503       -2.0535938704       -1.1690757387
 C          2.3463375503       -1.6037189108       -1.8249206888
 C          2.8345978802       -0.3290388607       -1.6083050297
 C          2.1749315600        0.5046255699       -0.7132633003
 C          1.0425549400        0.0511609903       -0.0551621402
 H          0.5226658798        0.7054041408        0.6343456693
 N          2.6711818799        1.7963055601       -0.4742031112
 S          4.3229022999        1.9970800403       -0.3108381211
 O          4.4787719597        3.1604496110        0.5345890581
 O          4.9356975301        2.0823562094       -1.6131790711
 C          4.8984309299        0.5318006610        0.5300517500
 C          4.3545503197        0.2304266418        1.7630384302
 C          4.7699710797       -0.9185562477        2.4158646011
 C          5.7186152698       -1.7418919280        1.8284774018
 C          6.2605496500       -1.4217442689        0.5936614716
 C          5.8465157400       -0.2750644194       -0.0651740692
 H          6.2379151301        0.0096213599       -1.0282786894
 H          6.9999609301       -2.0620223992        0.1403510022
 H          6.0367860398       -2.6375881977        2.3381031625
 H          4.3495084795       -1.1686417470        3.3767075612
 H          3.6219906796        0.8926071221        2.1963171596
 H          2.1594289198        2.3174413406        0.2215756184
 H          3.7016031903        0.0417174290       -2.1305693598
 H          2.8523322305       -2.2533742413       -2.5225161183
 H          0.8354253503       -3.0423216406       -1.3692549580
 H         -0.5614505002       -1.4112847286        1.5213860106
 C         -1.0309946199       -3.1083124495        0.3478780918
 C         -2.4318301599       -3.6106820494        0.5255164519
 C         -1.7685826397       -3.6992445403       -0.8145691179
 H         -1.4657657096       -4.6731392906       -1.1707148772
 H         -2.0905425496       -3.0303317909       -1.5969683684
 H         -2.5852664799       -4.5195910990        1.0876532726
 H         -3.2129662200       -2.8766172594        0.6613146213
 H         -0.2454489299       -3.7173373191        0.7843751823
