  62
        -98.94025502
 C          2.4858228146        1.1245810995        0.0419222168
 C          2.6614059623        0.0105901011       -0.8136782337
 C          4.0481652828       -0.4439333760       -0.9923327590
 C          5.0442325291        0.2166846958       -0.3742015747
 C          6.4923432400       -0.1745650907       -0.4229214907
 C          6.8503928037       -1.1181274232        0.7340664012
 C          5.8833970959       -2.2910275227        0.8964506911
 H          6.2505983323       -2.9029850223        1.7231762144
 H          4.9035123885       -1.9079995706        1.1908077499
 C          5.7284278653       -3.1642422437       -0.3564861468
 H          6.5632662067       -2.9886226485       -1.0358302560
 H          5.7678424188       -4.2140412141       -0.0585019042
 C          4.4121201592       -2.9647572721       -1.1102375705
 H          3.5731995224       -3.0469551412       -0.4142715415
 H          4.3121089648       -3.7727389703       -1.8398876919
 C          4.2744047604       -1.6407498984       -1.8725038415
 H          5.1460245285       -1.4909275377       -2.5127768830
 H          3.3876181194       -1.7145966851       -2.5088557326
 H          7.8607584427       -1.4971383651        0.5703202793
 H          6.8492725379       -0.5425772182        1.6626017727
 H          6.7012534824       -0.6555944119       -1.3763319083
 H          7.0961288364        0.7308090265       -0.3422348596
 O          4.8368328217        1.2998147845        0.4184007191
 C          3.5567838908        1.7711418078        0.6578895510
 O          3.5038710081        2.7532049903        1.4261388888
 H         -1.4623425164        0.8905351968       -0.4469115466
 C         -1.0617125912        0.3102342736        0.3670869334
 C          0.2087853267        0.5617129096        0.8585613565
 C          0.6797706102       -0.2137053788        1.9157061138
 C         -0.0965244977       -1.2205499392        2.4547093930
 C         -1.3666904368       -1.4663142638        1.9631810599
 C         -1.8477207062       -0.6970659036        0.9110494695
 N         -3.1219771528       -0.9394509502        0.3740472651
 S         -4.0281108490        0.3653381863       -0.1947182902
 O         -3.6160905047        0.6766673151       -1.5400322736
 O         -3.9823055369        1.4531373279        0.7565200143
 C         -5.6539136027       -0.3678957544       -0.2190621354
 C         -5.9908187520       -1.1955920916       -1.2736883032
 C         -7.2403347584       -1.7946775583       -1.2820218570
 C         -8.1271458012       -1.5581375810       -0.2418930967
 C         -7.7758921696       -0.7234129545        0.8082673957
 C         -6.5269785806       -0.1222557822        0.8237364634
 H         -6.2130862426        0.5397013252        1.6147489136
 H         -8.4686965607       -0.5389452846        1.6134058610
 H         -9.0992448278       -2.0252751252       -0.2514802598
 H         -7.5179874038       -2.4422243468       -2.0979973435
 H         -5.2726121762       -1.3425920139       -2.0635377894
 H         -3.6785072310       -1.5608740150        0.9447776279
 H         -1.9751791123       -2.2518252778        2.3849515217
 H          0.2862788112       -1.8155534266        3.2704825259
 H          1.6694035072       -0.0151929679        2.3059623195
 C          1.0900754799        1.6570591373        0.3086209515
 H          1.1989193520        2.4273449493        1.0871953841
 C          0.5331529183        2.3077742363       -0.9402315641
 C         -0.4826373902        3.4035768926       -0.8312538383
 C          0.9175717908        3.7192683637       -1.2619834898
 H          1.0931817993        3.9838704916       -2.2938313147
 H          1.5665446180        4.2266113237       -0.5627802630
 H         -0.7926190788        3.7012778449        0.1595167116
 H         -1.2744829858        3.4451703888       -1.5646982197
 H          0.4431697012        1.6121963883       -1.7675473764
 O          1.7123857866       -0.5767204165       -1.3960160095
