  62
        -98.94365130
 C         -1.7318577252       -1.1809194444        0.4559937483
 C         -1.8636842246       -0.1881866488       -0.5453338398
 C         -3.2386259251        0.0971593200       -0.9754952259
 C         -4.2644822851       -0.5923423173       -0.4442854425
 C         -5.7181382552       -0.4278535224       -0.7967508631
 C         -6.4171985134        0.7099955513       -0.0400999949
 C         -6.0300957816        2.1210401754       -0.4848662582
 H         -6.1436486415        2.2035961082       -1.5662081161
 H         -6.7460628451        2.8078754198       -0.0289336588
 C         -4.6116397019        2.5463299327       -0.0798590723
 H         -4.6396182373        3.5547272323        0.3392158371
 H         -4.2430754457        1.8842677667        0.7071395307
 C         -3.6009773670        2.5601045812       -1.2268194759
 H         -3.8879517533        3.3190526500       -1.9580581133
 H         -2.6250533079        2.8350431348       -0.8185162821
 C         -3.4491186967        1.2157475336       -1.9505689998
 H         -4.3222435587        1.0220163611       -2.5731263053
 H         -2.5648657088        1.2687282931       -2.5899451762
 H         -6.2142886196        0.5958120500        1.0273745901
 H         -7.4926830148        0.5875618119       -0.1880901050
 H         -5.8199915154       -0.2689630561       -1.8705425001
 H         -6.2099138843       -1.3674393601       -0.5358151139
 O         -4.0899197118       -1.5617566588        0.4940626082
 C         -2.8285961675       -1.8591887668        0.9855644465
 O         -2.8161618727       -2.7330048579        1.8771275568
 H          2.1565655347       -0.5066680780        0.5099604154
 C          1.5774498782        0.1097973977        1.1745351184
 C          0.2974889211       -0.2738192965        1.5381812301
 C         -0.4127503742        0.5292351856        2.4273253741
 C          0.1409700707        1.6941965347        2.9207200517
 C          1.4114452073        2.0865738868        2.5362194999
 C          2.1316646675        1.2893407252        1.6546530384
 N          3.3943990231        1.6873065243        1.2113418682
 S          4.5047638981        0.6590459397        0.5260086306
 O          4.6626111116       -0.5522234231        1.2975811170
 O          5.6951749021        1.4705086718        0.3856325724
 C          3.8532463303        0.2732831633       -1.0861831449
 C          4.0581499946       -0.9940277705       -1.5951399969
 C          3.5613795334       -1.3023127285       -2.8511495570
 C          2.8727497975       -0.3407370303       -3.5742299931
 C          2.6812888381        0.9289535226       -3.0521051153
 C          3.1772914362        1.2438169440       -1.7974354763
 H          3.0334099222        2.2185218803       -1.3620732009
 H          2.1385745561        1.6717344360       -3.6140910636
 H          2.4789468754       -0.5839377739       -4.5486237487
 H          3.7076450213       -2.2901207492       -3.2586425086
 H          4.5886690709       -1.7142842059       -0.9921682434
 H          3.7915985387        2.5110419120        1.6337375291
 H          1.8388930403        3.0041744600        2.9102513576
 H         -0.4221131596        2.3074329011        3.6084178373
 H         -1.4099556380        0.2284671639        2.7203753016
 C         -0.3550360783       -1.5222905282        0.9963973178
 H         -0.5153495965       -2.2190622812        1.8322250708
 C          0.4630589533       -2.2179324235       -0.0718211362
 C          1.5509734975       -3.1734681740        0.3124405355
 C          0.2773767718       -3.6887456643       -0.2858743527
 H          0.2984786738       -4.0695372162       -1.2957111045
 H         -0.4235030857       -4.1991117959        0.3589570509
 H          2.4486529589       -3.1998168192       -0.2863749055
 H          1.7240895705       -3.3383363140        1.3653597313
 H          0.6127633400       -1.5996269560       -0.9500540849
 O         -0.8913876486        0.4263981472       -1.0530577232
