  62
        -98.93674651
 C          2.4205525563        1.1589370396        0.1408455526
 C          2.4601987135       -0.0553308167       -0.5885570710
 C          3.8036201278       -0.5562054597       -0.9245537155
 C          4.8884047958        0.1365456645       -0.5357840609
 C          6.3089280899       -0.2909789624       -0.7625958179
 C          6.8321016021       -1.1228300238        0.4169456489
 C          5.8923469549       -2.2509722277        0.8428031221
 H          6.3779757271       -2.7865757345        1.6614087829
 H          4.9727663540       -1.8177906530        1.2431899329
 C          5.5388565019       -3.2400914315       -0.2766184090
 H          6.2610804949       -3.1534164047       -1.0891778211
 H          5.6139423939       -4.2558044022        0.1172880590
 C          4.1243213001       -3.0842533112       -0.8382310852
 H          3.9061208927       -3.9581147751       -1.4578589686
 H          3.4012695435       -3.0761621953       -0.0184937181
 C          3.8831230354       -1.8398900424       -1.7020346199
 H          4.6487135595       -1.7748397854       -2.4778959136
 H          2.9095617964       -1.9567842626       -2.1873097295
 H          6.9774974842       -0.4579187038        1.2714733518
 H          7.8025393881       -1.5395952724        0.1415608772
 H          6.3661904974       -0.8690308042       -1.6827691211
 H          6.9250469035        0.6036865736       -0.8666475723
 O          4.8109425821        1.2953501075        0.1677083172
 C          3.5848520690        1.8210221596        0.5393449594
 O          3.6620462840        2.8645381859        1.2182605374
 H         -1.3606232893        0.9172900139       -0.3452917413
 C         -1.0361943157        0.4184852009        0.5525495901
 C          0.1845591183        0.7237493718        1.1309094179
 C          0.5754476845        0.0268169147        2.2719134231
 C         -0.2345799033       -0.9506434024        2.8154997552
 C         -1.4608526138       -1.2417192807        2.2440038470
 C         -1.8567979078       -0.5569648183        1.1017598500
 N         -3.0807277102       -0.8503755003        0.4798515442
 S         -3.9409879404        0.4078305442       -0.2414046094
 O         -3.4531028822        0.6141693809       -1.5814900849
 O         -3.9386762308        1.5675598864        0.6230297905
 C         -5.5704624357       -0.3153920622       -0.3023371871
 C         -6.4884012659       -0.0085659786        0.6842359133
 C         -7.7401521260       -0.6026023771        0.6434677148
 C         -8.0498324394       -1.4908161566       -0.3754592186
 C         -7.1183600231       -1.7882103999       -1.3593785711
 C         -5.8654660081       -1.1971060460       -1.3252119933
 H         -5.1125395220       -1.3906483776       -2.0715533461
 H         -7.3635967538       -2.4768429422       -2.1517879260
 H         -9.0242893454       -1.9521423747       -0.4048793097
 H         -8.4675026712       -0.3710974486        1.4048060442
 H         -6.2058990245        0.6936373918        1.4520554426
 H         -3.6779850814       -1.4433035078        1.0393740630
 H         -2.0978818787       -2.0021090939        2.6699082284
 H          0.0855870405       -1.4851691978        3.6974879792
 H          1.5318925805        0.2599196584        2.7216254226
 C          1.1074849196        1.7831676150        0.5811110124
 H          1.3760051225        2.4558875217        1.4135410086
 C          0.4451554965        2.6517650427       -0.4776593843
 C          1.2609753481        3.4245742940       -1.4692236295
 C          0.4192348619        2.2730424286       -1.9263864995
 H         -0.4801506689        2.4774990190       -2.4897266669
 H          0.9087063092        1.3553474390       -2.2118615037
 H          0.9470592912        4.4263565160       -1.7209988405
 H          2.3333368269        3.2957011658       -1.4417980835
 H         -0.4410958009        3.1495760054       -0.0925967192
 O          1.4410727211       -0.6998296097       -0.9464384449
