  62
        -98.93583859
 C         -1.8983990164       -1.3971110608        0.4646748023
 C         -1.6075323063       -0.1620752188       -0.1656181973
 C         -2.5549676270        0.9419485223        0.0903711873
 C         -3.5977329256        0.7509291907        0.9145541016
 C         -4.6480123458        1.7393161321        1.3562939413
 C         -5.2343582791        2.6787142422        0.2942952671
 C         -5.3553351249        2.0722461546       -1.1111658730
 H         -5.1906498300        0.9940375953       -1.0694289911
 H         -6.3701463454        2.2314497609       -1.4805212061
 C         -4.3864181604        2.6983458797       -2.1169137293
 H         -4.7562230423        2.5059512614       -3.1270736342
 H         -4.3818731523        3.7809187447       -1.9722791446
 C         -2.9507700404        2.1789703197       -2.0545920107
 H         -2.9174481226        1.1469167546       -2.4148384917
 H         -2.3477903784        2.7762830290       -2.7429616225
 C         -2.2909817380        2.2129653951       -0.6657843557
 H         -1.2088852023        2.2582653543       -0.8154879340
 H         -2.6032274468        3.0897037317       -0.1037337110
 H         -4.6362608487        3.5871542382        0.2386350702
 H         -6.2228338896        2.9759047736        0.6487708508
 H         -5.4470726871        1.1299765719        1.7857022588
 H         -4.2286330751        2.3377834851        2.1703678440
 O         -3.8216847135       -0.4456268829        1.5276411011
 C         -2.9957498844       -1.5340633814        1.3213100740
 O         -3.3354749020       -2.5552284179        1.9512670736
 H          0.9283403059       -1.9670316877       -1.4628903152
 C          1.2755102758       -1.9342753154       -0.4424135949
 C          0.4125120409       -2.2709950553        0.5871061454
 C          0.8728749679       -2.1970374951        1.8977666052
 C          2.1710369213       -1.8035289828        2.1681207515
 C          3.0241756102       -1.4427690914        1.1396230580
 C          2.5623674308       -1.4903797199       -0.1693398047
 N          3.3903488121       -1.0653765214       -1.2203443337
 S          4.3925254163        0.2454749398       -0.9722147642
 O          4.5652887196        0.8436552370       -2.2788722652
 O          5.6086624349       -0.2011543123       -0.3344016761
 C          3.5587558388        1.3913068231        0.1200943365
 C          2.2005988908        1.6163819343        0.0133283238
 C          1.6117786871        2.5373514770        0.8665566268
 C          2.3789443330        3.2232226607        1.7943610182
 C          3.7424759826        2.9906912277        1.8831790146
 C          4.3370892084        2.0652506319        1.0415336899
 H          5.3910417779        1.8425376064        1.0856101832
 H          4.3410126072        3.5223916696        2.6052536291
 H          1.9099561362        3.9384612047        2.4516004953
 H          0.5478629192        2.7042338872        0.8025104473
 H          1.5957743738        1.0723180589       -0.6955762070
 H          2.9137504708       -0.9967900437       -2.1077727686
 H          4.0351594363       -1.1210147480        1.3329674431
 H          2.5196791244       -1.7633805530        3.1887727211
 H          0.1973623670       -2.4458130234        2.7045562730
 C         -1.0246441351       -2.6335513918        0.3146432848
 H         -1.3621805265       -3.3145837055        1.1112919583
 C         -1.2018677531       -3.3816854061       -0.9991515291
 C         -2.5741024731       -3.6039053552       -1.5602343411
 C         -1.6043141915       -2.7184405682       -2.2803790275
 H         -1.1667404543       -3.0808121848       -3.1995685676
 H         -1.7746811570       -1.6538118069       -2.2716077534
 H         -2.8105655046       -4.5675635242       -1.9853964103
 H         -3.4006410160       -3.1406974804       -1.0404468985
 H         -0.5059658489       -4.2112773876       -1.0824876112
 O         -0.6148156656        0.0427428903       -0.9100923714
