  62
        -98.93901175
 C         -2.3375826818       -0.8442428188        0.6359298005
 C         -2.6370443712       -0.2484664595       -0.6136677300
 C         -3.2256774007        1.0992351108       -0.5568913310
 C         -3.3977095009        1.6986651316        0.6343246185
 C         -3.9486885405        3.0810028919        0.8307060674
 C         -2.8310352001        4.1326138916        0.8506569171
 C         -1.8475793098        4.0136048504       -0.3137995225
 H         -1.1280615395        4.8294088403       -0.2145030028
 H         -1.2852089901        3.0815962503       -0.2129485417
 C         -2.4975369293        4.0700717398       -1.7034672028
 H         -3.4957729392        4.5028754602       -1.6276974734
 H         -1.9043228789        4.7304417791       -2.3392689830
 C         -2.5825951796        2.7208161693       -2.4192835719
 H         -2.8408736292        2.9062478487       -3.4652728121
 H         -1.6031789097        2.2353393790       -2.4038813713
 C         -3.6163032501        1.7344620600       -1.8619188516
 H         -3.7095555401        0.9128799896       -2.5781422111
 H         -4.5866210999        2.2276538504       -1.7742422522
 H         -3.2899763598        5.1230769217        0.8421360263
 H         -2.2699767205        4.0247156320        1.7820430673
 H         -4.4758723508        3.1067799728        1.7860220272
 H         -4.6539313001        3.3001816417        0.0312210970
 O         -3.0451381415        1.1179511223        1.8109484390
 C         -2.4992591519       -0.1546895179        1.8394646800
 O         -2.2054264125       -0.5581054972        2.9839360504
 O         -2.4404325910       -0.8043232203       -1.7248507095
 C         -1.7362709623       -2.2354899489        0.7289980716
 C         -0.6139343620       -2.3838556300       -0.2693275879
 C         -0.5644200621       -3.3765984806       -1.2386424972
 C          0.5167252682       -3.4591413916       -2.0988588668
 C          1.5717147285       -2.5718664719       -2.0009232371
 C          1.5270094585       -1.5673476812       -1.0395315877
 C          0.4396058383       -1.4811404603       -0.1869004682
 H          0.4126353883       -0.6968085898        0.5584103613
 N          2.5685510888       -0.6303375015       -0.9316460880
 S          2.9326908885       -0.0087592506        0.5931814917
 O          2.8972310978       -1.0636480600        1.5814068924
 O          2.0881023788        1.1339077998        0.8421279806
 C          4.6161127288        0.5224705186        0.3370374919
 C          5.6436372684       -0.3499280015        0.6445041028
 C          6.9518889486        0.0470754879        0.4176002229
 C          7.2096168092        1.3025378374       -0.1123869378
 C          6.1685091296        2.1677867776       -0.4142124087
 C          4.8577122994        1.7771543982       -0.1892826389
 H          4.0170626497        2.4178297483       -0.3996231896
 H          6.3726187401        3.1444032372       -0.8225225393
 H          8.2284171994        1.6098241769       -0.2880216077
 H          7.7629153683       -0.6222957823        0.6550564036
 H          5.3949494179       -1.3110558612        1.0650504133
 H          3.3975622689       -0.8983208821       -1.4440053276
 H          2.4168397986       -2.6429194826       -2.6686278967
 H          0.5403523281       -4.2316422621       -2.8525558663
 H         -1.3811332923       -4.0726943304       -1.3349644270
 H         -1.2829624626       -2.2803078184        1.7346563918
 C         -2.7577490327       -3.3616403686        0.6646364221
 C         -4.1725888128       -3.1472491878        1.1111469115
 C         -3.8712598724       -3.3799002889       -0.3373359983
 H         -4.1531235926       -4.3283288891       -0.7708307577
 H         -3.9406151119       -2.5480601193       -1.0196544489
 H         -4.6562620832       -3.9329129473        1.6720036118
 H         -4.4520719925       -2.1517046975        1.4250017707
 H         -2.3162529331       -4.3197195086        0.9221945728
