  62
        -98.94503905
 C         -0.8033850309       -1.5845496275       -1.1194257613
 C         -2.1071175911       -1.7547955474       -0.5887388136
 C         -3.0366926031       -0.6359789384       -0.7666854695
 C         -2.6231623921        0.4756145118       -1.4002001021
 C         -3.4332998073        1.7236506516       -1.6222162217
 C         -3.4319128520        2.6693066903       -0.4127794387
 C         -4.3022371563        2.2199403761        0.7617753912
 H         -4.4126472789        3.0805380883        1.4248640157
 H         -5.2970388774        1.9553898417        0.4003586851
 C         -3.7143874645        1.0541006940        1.5694440354
 H         -2.6439531395        0.9714044680        1.3632419634
 H         -3.8106245422        1.2691569181        2.6368935095
 C         -4.3856939005       -0.2972259069        1.3210943070
 H         -3.8497830980       -1.0539045377        1.9000749245
 H         -5.4171992740       -0.2641348301        1.6808659839
 C         -4.3964220245       -0.7447017113       -0.1457242290
 H         -5.1204228492       -0.1591594029       -0.7123461419
 H         -4.6926364803       -1.7964852385       -0.1783072399
 H         -2.4033277405        2.7926734073       -0.0627612456
 H         -3.7908488240        3.6431564830       -0.7550576908
 H         -4.4595722498        1.4603285589       -1.8803167012
 H         -2.9831946384        2.2435946296       -2.4707662907
 O         -1.3834302588        0.5862137353       -1.9385140514
 C         -0.4299220529       -0.4164409432       -1.7855529495
 O          0.6670952245       -0.1364809037       -2.3012374946
 O         -2.4760141306       -2.8023771669        0.0097013487
 C          0.2017121284       -2.6790653191       -0.8007691462
 C          0.7908459357       -2.3850975232        0.5569931635
 C          0.8546218531       -3.3474110865        1.5568131001
 C          1.3232173684       -3.0171153206        2.8172754484
 C          1.7054021186       -1.7206026280        3.1122876263
 C          1.6484201886       -0.7522911529        2.1156747908
 C          1.2273401226       -1.0991519439        0.8426808698
 H          1.1969289660       -0.3438896309        0.0742444919
 N          2.0108320370        0.5793475804        2.3594902563
 S          1.2094687133        1.8094655692        1.5475190203
 O          1.4235219565        2.9775495965        2.3799903724
 O         -0.1723924750        1.4767614250        1.2901008095
 C          2.1165187859        2.0301020425        0.0339876775
 C          1.4526265076        2.5199995836       -1.0713902947
 C          2.1663378381        2.7458482315       -2.2369935764
 C          3.5248170878        2.4787607931       -2.2756821233
 C          4.1784004246        1.9895794246       -1.1550731832
 C          3.4714207755        1.7656629333        0.0145342875
 H          3.9461453822        1.3810481140        0.9020411794
 H          5.2350616937        1.7776121382       -1.1907269627
 H          4.0758611325        2.6479673818       -3.1874674014
 H          1.6540830994        3.1153698345       -3.1106776725
 H          0.3896495740        2.6945883849       -1.0103364448
 H          2.1940810586        0.8134083755        3.3240505451
 H          2.0352374920       -1.4554700645        4.1051521870
 H          1.3668289564       -3.7721567934        3.5875073470
 H          0.5105023259       -4.3502015770        1.3506848880
 H         -0.3922779715       -3.6027185159       -0.7109171792
 C          1.2484627183       -2.9083598597       -1.8782201145
 C          2.6732589018       -2.4709532530       -1.7450835102
 C          2.3297137305       -3.9262988993       -1.6630443617
 H          2.6026076049       -4.5717295761       -2.4839665347
 H          2.3821248382       -4.3967504962       -0.6927470001
 H          3.1634360639       -2.0969019076       -2.6303452073
 H          2.9668330188       -1.9615958992       -0.8407156460
 H          0.8208598328       -2.8519675306       -2.8736845110
