  62
        -98.93223687
 C         -2.2903655303       -1.2297649586        0.3250752595
 C         -2.6097836931       -0.1424886917       -0.5240243682
 C         -3.6630554276        0.7651990780       -0.0383839275
 C         -4.2225900459        0.5643915724        1.1671510147
 C         -5.2585965828        1.4269327068        1.8381559975
 C         -6.6392713791        1.4898350682        1.1567636454
 C         -6.8167082382        2.6705893319        0.1941231562
 H         -7.8254133169        3.0713728735        0.3127948694
 H         -6.1281976290        3.4656911929        0.4829396805
 C         -6.6354451307        2.3528252260       -1.2933242241
 H         -6.5357682325        3.2998172596       -1.8282493324
 H         -7.5362508241        1.8591370108       -1.6650592435
 C         -5.4463648271        1.4585338113       -1.6447166289
 H         -5.6729953453        0.4242074870       -1.3748565777
 H         -5.3173962498        1.4725375748       -2.7289388576
 C         -4.1206506149        1.8538412965       -0.9655738108
 H         -3.3383891432        1.9741795564       -1.7179805641
 H         -4.2286902987        2.7952268475       -0.4288369752
 H         -7.3794423524        1.5863184968        1.9525956759
 H         -6.8362442805        0.5477660586        0.6457812193
 H         -5.3752148588        1.0110330396        2.8409571476
 H         -4.8594258845        2.4385894063        1.9406953172
 O         -3.8605891900       -0.4727446487        1.9705820223
 C         -2.9139265115       -1.3957642714        1.5660480753
 O         -2.7119358316       -2.3119744746        2.3874044882
 H         -0.0105184014        0.0062705531       -0.6768602375
 C          0.6217036287       -0.6402694817       -0.0857145383
 C          0.1300979528       -1.8678103452        0.3368880235
 C          0.9613257885       -2.6957007802        1.0814755730
 C          2.2517578007       -2.3023411390        1.3914225959
 C          2.7381525520       -1.0793561446        0.9655735348
 C          1.9148755581       -0.2442893893        0.2215090657
 N          2.4017088168        1.0034375692       -0.2158843029
 S          3.7870192195        0.9729060628       -1.1703973966
 O          3.7415499638        2.1874120613       -1.9545888514
 O          3.8893695285       -0.2660665577       -1.9068620704
 C          5.1171753442        1.0934315273        0.0070273594
 C          6.0885048370        0.1126495109        0.0521775826
 C          7.1189000744        0.2322945471        0.9718974600
 C          7.1595682545        1.3248647449        1.8244976631
 C          6.1773755868        2.3025392160        1.7646529610
 C          5.1452985654        2.1895766384        0.8469655855
 H          4.3651127549        2.9278746484        0.7646424839
 H          6.2125034404        3.1506125059        2.4293813835
 H          7.9614630012        1.4153544049        2.5400818836
 H          7.8835450109       -0.5262853101        1.0197947808
 H          6.0121021573       -0.7212525228       -0.6271514032
 H          1.6907529105        1.5643627861       -0.6648789710
 H          3.7422040463       -0.7680315707        1.2035303784
 H          2.8860010779       -2.9549280402        1.9715966351
 H          0.5860068241       -3.6488233193        1.4245094560
 C         -1.2669381537       -2.2965943228       -0.0308377707
 H         -1.5245191343       -3.1601083672        0.6022737814
 C         -1.3776760963       -2.7527716662       -1.4812359871
 C         -0.3336823450       -2.4967171455       -2.5228119945
 C         -0.5222626354       -3.8795556924       -1.9800317323
 H         -0.9701277871       -4.6308949733       -2.6125270852
 H          0.2378418463       -4.2572723191       -1.3127594031
 H          0.5580908450       -1.9556953616       -2.2449219474
 H         -0.6727184285       -2.2780882413       -3.5242855287
 H         -2.4061015973       -2.7375627987       -1.8283853004
 O         -2.0516230578        0.0887209308       -1.6289643446
