  62
        -98.93655628
 C         -2.0108031368       -1.4249342997        0.2853972482
 C         -2.0721990869       -0.2689599390        1.1054043469
 C         -3.0748949613        0.7474887624        0.7518206055
 C         -3.8618326699        0.5457745520       -0.3188374429
 C         -4.9810104213        1.4105814236       -0.8428855761
 C         -4.7520951089        2.9275687899       -0.8729629504
 C         -3.3037610703        3.3594679391       -1.1446743091
 H         -2.7135145624        2.5018685226       -1.4720704201
 H         -3.2985718376        4.0890402222       -1.9566337996
 C         -2.6360327788        4.0037707972        0.0723170575
 H         -1.7963249919        4.6117072256       -0.2718810194
 H         -3.3517003826        4.6779556804        0.5478571712
 C         -2.0976716330        3.0274414065        1.1173352492
 H         -1.2314006291        2.4929223241        0.7182475140
 H         -1.7493363453        3.6090069051        1.9740843342
 C         -3.1027978335        1.9760008818        1.6151283208
 H         -2.7853279161        1.6522191823        2.6100031498
 H         -4.1051610253        2.3910843027        1.6895852820
 H         -5.4044875858        3.3287296405       -1.6505268153
 H         -5.0826408446        3.3644296603        0.0683692263
 H         -5.1678648388        1.0483067793       -1.8567581192
 H         -5.8784708699        1.1956616058       -0.2552893087
 O         -3.7508608099       -0.5656377928       -1.0970288402
 C         -2.8269731387       -1.5663013249       -0.8361759933
 O         -2.8530209475       -2.4922440354       -1.6697489051
 O         -1.3272430144       -0.1030401261        2.1083724955
 C         -0.9816934670       -2.4751422332        0.6695487055
 C          0.2904589343       -2.2507018950       -0.1119703782
 C          0.3565243345       -2.4899585949       -1.4804272430
 C          1.5274689551       -2.2475927054       -2.1757600772
 C          2.6525325717       -1.7680332569       -1.5270176057
 C          2.5929692927       -1.5143411453       -0.1627706723
 C          1.4154638702       -1.7575046230        0.5335497734
 H          1.3669888254       -1.5469758864        1.5933922827
 N          3.7321162238       -1.0418704985        0.5160186467
 S          4.5209474503        0.3331999688       -0.0139957739
 O          4.9979875363        0.1197736485       -1.3562547677
 O          5.5236351402        0.6020765110        0.9900505692
 C          3.2936089977        1.6270448782        0.0005585976
 C          2.3972360874        1.7206627835       -1.0456189000
 C          1.4286748932        2.7111128668       -1.0076251785
 C          1.3751811950        3.5858163174        0.0666778746
 C          2.2783451805        3.4742697080        1.1121736610
 C          3.2448126370        2.4825021167        1.0832396012
 H          3.9716048901        2.3638475926        1.8707203958
 H          2.2302356229        4.1545902181        1.9470644659
 H          0.6251157188        4.3604041060        0.0892510980
 H          0.7189718753        2.7963148502       -1.8154331333
 H          2.4727972596        1.0297529142       -1.8695738737
 H          3.6100912334       -0.9941862934        1.5176068422
 H          3.5693301595       -1.5744138253       -2.0600269712
 H          1.5672782423       -2.4379605284       -3.2378899288
 H         -0.5222996338       -2.8469420061       -1.9949791356
 H         -0.7588992257       -2.2825335738        1.7278494717
 C         -1.4760002700       -3.9009592236        0.5394206831
 C         -0.7686424661       -4.9823872022        1.2978614132
 C         -2.1441094673       -4.5535893702        1.7106311293
 H         -2.9725394825       -5.2202245242        1.5239878501
 H         -2.2474031377       -3.9737970768        2.6164219688
 H         -0.6489995938       -5.9464677714        0.8281615395
 H          0.0616956106       -4.6935261911        1.9246130108
 H         -1.8574018499       -4.1425763365       -0.4433298435
