  62
        -98.94393193
 C         -1.8306805506       -1.1283332769        0.2122574650
 C         -2.1790560055       -0.1070951815       -0.7039245888
 C         -3.6121181319        0.0111080013       -1.0125621694
 C         -4.4826910865       -0.8451447828       -0.4472487693
 C         -5.9717237396       -0.7998020372       -0.6292669125
 C         -6.6357945998        0.0642564371        0.4520650832
 C         -5.9805680074        1.4329291698        0.6378289424
 H         -6.5495371093        1.9648602646        1.4034130939
 H         -4.9690060214        1.2952948817        1.0267528077
 C         -5.9184887551        2.2854731284       -0.6371873921
 H         -6.2222395559        3.3053508116       -0.3919006958
 H         -6.6277057405        1.9044516395       -1.3728782822
 C         -4.5298309374        2.3759397904       -1.2730743379
 H         -3.7965633575        2.6683917640       -0.5167837577
 H         -4.5520559440        3.1664207716       -2.0281575119
 C         -4.0264447113        1.1005852157       -1.9609465675
 H         -4.7806365756        0.7377719661       -2.6623724039
 H         -3.1272597465        1.3620621265       -2.5269789428
 H         -7.6876522082        0.1949856050        0.1918107093
 H         -6.5845951944       -0.4713532781        1.4027941495
 H         -6.2000761104       -0.4041691889       -1.6169006652
 H         -6.3583616715       -1.8176672362       -0.5566403080
 O         -4.1051162789       -1.8307813027        0.4064493913
 C         -2.7771374728       -1.9888452961        0.7680125216
 O         -2.5700929830       -2.9131389113        1.5799278438
 H          2.0305875576       -0.1056906384        0.0357805481
 C          1.4422434696        0.4381716404        0.7553516651
 C          0.1975307534       -0.0340036283        1.1423142180
 C         -0.5317441471        0.6963965816        2.0773687570
 C         -0.0420189121        1.8838010010        2.5841088861
 C          1.1885356255        2.3660763629        2.1743967277
 C          1.9345218236        1.6359793353        1.2571451797
 N          3.2072182270        2.0758715271        0.8757172917
 S          3.8946432584        1.7006149454       -0.5974809074
 O          5.0047630055        2.6244920374       -0.7083854440
 O          2.9424329965        1.7293668569       -1.6818530795
 C          4.5428467428        0.0554353337       -0.3845070485
 C          4.5397944670       -0.8045762788       -1.4646544550
 C          5.0902927621       -2.0686492557       -1.3192425786
 C          5.6306513662       -2.4494726888       -0.1007950884
 C          5.6264828857       -1.5736947305        0.9740828595
 C          5.0830108075       -0.3067465425        0.8335854231
 H          5.0643839847        0.3977870688        1.6479842649
 H          6.0459254615       -1.8740091963        1.9207274485
 H          6.0551347702       -3.4346480221        0.0106067165
 H          5.0945671166       -2.7501248704       -2.1553471895
 H          4.0966134542       -0.4718340032       -2.3902080881
 H          3.4659460054        2.9960476491        1.1983103701
 H          1.5683166224        3.2994676619        2.5609608527
 H         -0.6248066181        2.4440856249        3.2999539504
 H         -1.4971481509        0.3232902756        2.3925226376
 C         -0.3793131052       -1.3233827069        0.6115538348
 H         -0.3870003026       -2.0577581096        1.4308009710
 C          0.4054592285       -1.9017168610       -0.5479627609
 C          1.5663401111       -2.8137417674       -0.2910391953
 C          0.2858063718       -3.3665506511       -0.8387560927
 H          0.2582040487       -3.6866167093       -1.8694991535
 H         -0.3458958191       -3.9487192829       -0.1835176968
 H          1.8123699694       -3.0303930117        0.7373697683
 H          2.4227384451       -2.7551305737       -0.9454915431
 H          0.4599938817       -1.2243104733       -1.3935915047
 O         -1.3409033934        0.6685703604       -1.2341954184
