  62
        -98.94443226
 C         -1.7066873108       -1.4456204847        0.5618168630
 C         -2.6347186731       -1.0055047349       -0.4142010775
 C         -3.3964641357        0.2028000755       -0.0662612993
 C         -3.1477002469        0.8530938472        1.0838421740
 C         -3.8468474172        2.0925560727        1.5731875060
 C         -3.2887975123        3.4012642918        0.9969798600
 C         -3.6084594549        3.6551650611       -0.4767777160
 H         -4.6833356717        3.5605616776       -0.6343468314
 H         -3.3411059287        4.6926107168       -0.6879039980
 C         -2.8601815629        2.7407228784       -1.4573907400
 H         -2.0172956749        2.2668747855       -0.9497733586
 H         -2.4498217826        3.3388084867       -2.2738888140
 C         -3.7242654206        1.6486435833       -2.0866071456
 H         -4.5040353348        2.1025049867       -2.7023075185
 H         -3.0895947040        1.0426168515       -2.7377257199
 C         -4.3879943912        0.7124389238       -1.0686973061
 H         -5.2082230092        1.2237431067       -0.5652228952
 H         -4.7903861079       -0.1490817130       -1.6070342524
 H         -2.2068975605        3.4141682043        1.1432952414
 H         -3.7121023774        4.2199499109        1.5837517924
 H         -4.9120490909        2.0216416467        1.3510052781
 H         -3.7206719896        2.1131859942        2.6580395225
 O         -2.2081406122        0.4284687121        1.9711759423
 C         -1.4679120482       -0.7150076568        1.7297849174
 O         -0.6346527449       -0.9791692143        2.6209305663
 H          1.5700212184       -2.0885770509        1.4209069766
 C          1.5587477524       -1.9091629333        0.3542226118
 C          0.4090229872       -2.1946540244       -0.3683735284
 C          0.3945839076       -1.9270599958       -1.7331813018
 C          1.5078438173       -1.3853647269       -2.3506459222
 C          2.6489894523       -1.0887122705       -1.6246085736
 C          2.6688780602       -1.3496362299       -0.2612715460
 N          3.8087617262       -1.0156377259        0.4957178735
 S          4.3781383260        0.5477218048        0.3156977555
 O          5.2183230638        0.6193483596       -0.8537862157
 O          5.0224601651        0.8701425032        1.5697207281
 C          2.9362306130        1.5744019148        0.0754151536
 C          1.9009699399        1.4952400281        0.9857940792
 C          0.7888560058        2.3017148216        0.8077579841
 C          0.7328696693        3.1769475392       -0.2658857802
 C          1.7793250470        3.2429600881       -1.1725319164
 C          2.8904614981        2.4326830893       -1.0044926967
 H          3.7235087261        2.4471442682       -1.6883412775
 H          1.7302563132        3.9217196497       -2.0085341032
 H         -0.1304776276        3.8104919804       -0.3972140100
 H         -0.0276002173        2.2296159727        1.5104777907
 H          1.9556294526        0.8127539213        1.8193878732
 H          3.7188238970       -1.2452458681        1.4753526964
 H          3.5181162019       -0.6504268847       -2.0882456100
 H          1.4846493178       -1.1799313749       -3.4099738054
 H         -0.5054736018       -2.1152146926       -2.2972142611
 C         -0.8172320160       -2.6676171373        0.3731966321
 H         -0.5013754956       -2.9680849463        1.3814992448
 C         -1.4985703543       -3.8486061831       -0.2816927039
 C         -0.8666063359       -5.2012201246       -0.1550311424
 C         -2.1347217023       -4.8941664739        0.5820557361
 H         -3.0529962237       -5.3507349020        0.2446925766
 H         -2.0827951153       -4.7616249128        1.6532686018
 H          0.0464942338       -5.2760024381        0.4165961938
 H         -0.9114117250       -5.8715394727       -0.9994448882
 H         -1.9966759507       -3.6097215862       -1.2106618487
 O         -2.8399361125       -1.5717971630       -1.5181353713
