  62
        -98.94121278
 C          1.7829420641        0.6663049445       -0.0599125616
 C          2.9639465297        1.1238651156        0.5832836814
 C          4.2390835223        0.6915107630       -0.0020088088
 C          4.2261155142       -0.1123873022       -1.0802077201
 C          5.4472339996       -0.6718354307       -1.7493047819
 C          5.8284056492       -2.0364084116       -1.1587874679
 C          5.8843778551       -2.0542970870        0.3688282138
 H          4.8780906673       -1.8972875136        0.7642337831
 H          6.1941634714       -3.0571852700        0.6707058401
 C          6.8373823859       -1.0185194334        0.9817638439
 H          7.4210588438       -1.5024475879        1.7677358342
 H          7.5410248224       -0.6691052504        0.2252595644
 C          6.1414625194        0.1846457885        1.6209918290
 H          6.8826665549        0.7325872044        2.2088562448
 H          5.3692884652       -0.1635870985        2.3116051227
 C          5.5025929349        1.1824952592        0.6467751900
 H          5.2210247659        2.0708969951        1.2196227497
 H          6.2335902321        1.4783010276       -0.1085966087
 H          6.7988636338       -2.3289960198       -1.5639314322
 H          5.0889814719       -2.7726678685       -1.4826567115
 H          6.2717474673        0.0290879855       -1.6336275222
 H          5.2319446856       -0.7935333170       -2.8123255935
 O          3.0804613641       -0.5478044020       -1.6584898696
 C          1.8308750808       -0.1852989006       -1.1654451202
 O          0.8856183587       -0.6824663594       -1.8043176804
 O          2.9505565266        1.8629000467        1.6030232880
 C          0.4594455658        1.0984907859        0.5487998795
 C         -0.4300812494       -0.0932227095        0.7847252988
 C         -0.2648847700       -0.8677076017        1.9284661026
 C         -1.0725090061       -1.9655133536        2.1659452244
 C         -2.0577455910       -2.3196592743        1.2603328463
 C         -2.2162963185       -1.5628839898        0.1089372917
 C         -1.4198268908       -0.4499876150       -0.1180158804
 H         -1.5509868777        0.1266229934       -1.0204986201
 N         -3.2390678355       -1.9120588574       -0.8089374883
 S         -4.7633633957       -1.4241485104       -0.3148020142
 O         -5.1085716148       -2.1420036049        0.8852950053
 O         -5.6382160931       -1.6080973929       -1.4503929758
 C         -4.5701633302        0.3127852639        0.0439276908
 C         -4.7565212126        1.2282171962       -0.9725360503
 C         -4.5043244300        2.5675755397       -0.7231227287
 C         -4.0585728025        2.9637424816        0.5287301253
 C         -3.8732891957        2.0314244570        1.5383243156
 C         -4.1285372371        0.6911947951        1.2960721425
 H         -3.9962285364       -0.0635673707        2.0540407171
 H         -3.5222016638        2.3417733757        2.5094736917
 H         -3.8530262348        4.0056564549        0.7188989313
 H         -4.6488659791        3.2960010849       -1.5049555200
 H         -5.1036769195        0.8773122627       -1.9313575670
 H         -3.0604799193       -1.5536723642       -1.7372350547
 H         -2.7084681806       -3.1619359716        1.4308558236
 H         -0.9345803437       -2.5508624263        3.0624182117
 H          0.5083240257       -0.5983078483        2.6347517890
 H          0.7401180385        1.5133186006        1.5300789669
 C         -0.2613804895        2.2111772709       -0.1991956151
 C          0.5057293263        3.3552255939       -0.7890236963
 C         -0.1995052898        2.3843002723       -1.6858163134
 H         -1.0938944547        2.7144861701       -2.1941882270
 H          0.3919139029        1.6857500099       -2.2565444588
 H          0.1055765441        4.3526298546       -0.6899844815
 H          1.5838434189        3.3080846384       -0.7366603054
 H         -1.2090300303        2.4544366791        0.2724355070
