  62
        -98.94444141
 C          1.3179554426        1.5404140284       -0.1258934934
 C          1.3342089157        0.1242346981       -0.1675334284
 C          2.5002976237       -0.5176702800        0.4562262956
 C          3.4650461828        0.2310450240        1.0181137726
 C          4.7049504884       -0.2830744053        1.6980136949
 C          5.8504531410       -0.6192003490        0.7329693605
 C          5.6504763396       -1.8847783866       -0.1022447502
 H          6.6128699828       -2.1190053624       -0.5618087449
 H          5.3935445678       -2.7154726850        0.5555784044
 C          4.5944407696       -1.7553418026       -1.2091014053
 H          4.9883188962       -2.1744945400       -2.1378645902
 H          4.3916023829       -0.6984068837       -1.3968509774
 C          3.2744352231       -2.4672646248       -0.9122522184
 H          3.4449745586       -3.5445358395       -0.8576573194
 H          2.5872404452       -2.2742185372       -1.7395424022
 C          2.5919150301       -2.0120017467        0.3836152137
 H          1.5723515502       -2.4039656016        0.3905501846
 H          3.1273040609       -2.4020667213        1.2486256462
 H          6.0095764966        0.2340506482        0.0694037582
 H          6.7547985913       -0.7453387769        1.3329431182
 H          5.0422965855        0.5090930491        2.3698660825
 H          4.4594562077       -1.1625882793        2.2937307016
 O          3.4106528044        1.5895888871        1.0436581078
 C          2.3501980190        2.2702318685        0.4718793405
 O          2.4406443280        3.5124248975        0.5550743464
 O          0.4409866548       -0.5892347213       -0.6924445799
 C          0.1849526352        2.3674051135       -0.7150403769
 C         -1.0162070512        2.3364125253        0.1998797994
 C         -1.3255172393        3.4436177816        0.9828063895
 C         -2.4174323424        3.4229515815        1.8315034796
 C         -3.2260081988        2.3034658225        1.9070262089
 C         -2.9186022680        1.1866760285        1.1369629824
 C         -1.8170028442        1.2066481431        0.2944140623
 H         -1.5761176182        0.3290286657       -0.2819907255
 N         -3.6963637858        0.0265740162        1.2252135732
 S         -3.8980348867       -1.0014947640       -0.0772213400
 O         -3.9359159581       -0.2830429325       -1.3295477237
 O         -5.0995344659       -1.7432510189        0.2531876713
 C         -2.5219419636       -2.1261023576       -0.0204060329
 C         -1.9368783658       -2.5371071479       -1.1995852515
 C         -0.9181832645       -3.4741079524       -1.1515856103
 C         -0.5055919974       -3.9814256674        0.0696310175
 C         -1.1012298513       -3.5544696520        1.2469269344
 C         -2.1223710508       -2.6201984319        1.2047377458
 H         -2.6068211536       -2.2651471385        2.0994522266
 H         -0.7686388954       -3.9436477330        2.1962913327
 H          0.2888743595       -4.7109885852        0.1042682240
 H         -0.4441514563       -3.7969468525       -2.0646797717
 H         -2.2786941724       -2.1073463968       -2.1278646293
 H         -4.5338261059        0.1041438389        1.7828062984
 H         -4.0842748928        2.2882596979        2.5616190741
 H         -2.6467526352        4.2894890668        2.4332197149
 H         -0.6931915786        4.3184056343        0.9288337088
 H          0.5578537847        3.4003719080       -0.7415745904
 C         -0.1762013988        1.9559522993       -2.1284465130
 C         -0.8854095830        2.9383570025       -3.0089833359
 C          0.5449001534        2.5824767292       -3.2818970576
 H          0.7712309031        1.9711332820       -4.1426002414
 H          1.3041261164        3.3179431816       -3.0570186094
 H         -1.6480513868        2.5705788573       -3.6784179990
 H         -1.0946413493        3.9158499955       -2.6006407081
 H         -0.4478623925        0.9129937075       -2.2224523253
