  62
        -98.94273462
 C         -1.4474975435       -1.1937767554        0.0140918272
 C         -2.6998673218       -1.3013862863        0.6745656483
 C         -3.4499505550       -0.0529540300        0.8631779194
 C         -2.8972348233        1.1084740251        0.4696008811
 C         -3.5569169842        2.4520570014        0.5775352186
 C         -4.3438833840        2.7888009438       -0.6964401441
 C         -5.2755069338        1.6687967603       -1.1596435890
 H         -5.8034525063        2.0292890151       -2.0452190235
 H         -4.6751807616        0.8110191710       -1.4714557329
 C         -6.2960847187        1.2151722760       -0.1064151436
 H         -6.3924434328        1.9761048004        0.6689230844
 H         -7.2726691864        1.1159129885       -0.5851356690
 C         -5.9807490639       -0.1334455684        0.5439381120
 H         -6.8649753407       -0.4573968099        1.0994702057
 H         -5.7933464404       -0.8793492874       -0.2329150806
 C         -4.7980672583       -0.1448092535        1.5208949719
 H         -4.8106614840       -1.1040208295        2.0469080457
 H         -4.9232050723        0.6511691001        2.2579447279
 H         -4.9247114705        3.6949420965       -0.5148243341
 H         -3.6327311970        2.9955579264       -1.4993862163
 H         -2.7819121440        3.2055738449        0.7250086582
 H         -4.2216615397        2.4563902860        1.4391685139
 O         -1.6798754357        1.1818365417       -0.1195314918
 C         -0.9288781403        0.0419902487       -0.3840520143
 O          0.1431837323        0.2827030931       -0.9654602906
 O         -3.1682041209       -2.3946184591        1.0912590925
 C         -0.6411196242       -2.4729386456       -0.1492227854
 C          0.7285655532       -2.2438455909        0.4325792887
 C          0.9187025145       -2.3395773314        1.8072005949
 C          2.1405876336       -2.0266266395        2.3741234793
 C          3.1864105681       -1.5815449004        1.5843565114
 C          2.9987459037       -1.4674479542        0.2131264588
 C          1.7882917631       -1.8309347598       -0.3598388034
 H          1.6545255519       -1.7419295758       -1.4263261986
 N          4.0402442979       -0.9644327203       -0.5945580112
 S          4.6281014043        0.5586457607       -0.2143937890
 O          5.4004659853        0.9620490790       -1.3686928471
 O          5.3527249623        0.4773052561        1.0305298656
 C          3.2129548132        1.6260794062       -0.0217088577
 C          2.7499947215        2.3147646599       -1.1235960218
 C          1.6336082939        3.1220166787       -0.9896274721
 C          0.9946845509        3.2161688928        0.2356789623
 C          1.4689215450        2.5145132679        1.3319031779
 C          2.5905422284        1.7118305596        1.2066288327
 H          2.9891199279        1.1557856423        2.0395253012
 H          0.9626583949        2.5815633749        2.2823476032
 H          0.1152848528        3.8333830063        0.3345304420
 H          1.2559086117        3.6627347446       -1.8427537891
 H          3.2736582281        2.2121074847       -2.0607005625
 H          3.8080951857       -0.9841980783       -1.5781100620
 H          4.1358159407       -1.2999779868        2.0107972251
 H          2.2776530067       -2.1158374656        3.4413187527
 H          0.0913518167       -2.6508458908        2.4298998684
 H         -1.1672707521       -3.2085606668        0.4796248792
 C         -0.6062536014       -3.0511569158       -1.5553315502
 C         -1.8529680416       -3.0821697116       -2.3870783797
 C         -0.6995598321       -2.2193222206       -2.7976095161
 H         -0.1158135878       -2.5225443792       -3.6549967711
 H         -0.7893325294       -1.1502823816       -2.6897716537
 H         -2.0700191544       -3.9675925774       -2.9652972726
 H         -2.7294019473       -2.6001915702       -1.9786866459
 H          0.0323654310       -3.9281241758       -1.6091504463
