  62
        -98.93704979
 C          1.7634102976        1.4455667670        0.4256793149
 C          1.7669315975        0.1963402776        1.0975816745
 C          2.8870657472       -0.7134793431        0.8073802583
 C          3.8398310141       -0.3163462692       -0.0535969379
 C          5.0625102829       -1.0800527627       -0.4827643427
 C          4.8110551428       -1.8353461163       -1.7981278195
 C          4.1844605793       -3.2191052303       -1.6306420914
 H          3.9270249981       -3.5834988877       -2.6278550648
 H          4.9274802386       -3.9026676774       -1.2147086495
 C          2.9314842730       -3.2577925367       -0.7514919462
 H          2.3074931105       -2.3920316105       -0.9814792705
 H          2.3632962043       -4.1520334669       -1.0154356780
 C          3.2470799393       -3.2933614931        0.7518077855
 H          4.3083167174       -3.5033124216        0.8843789014
 H          2.7096739061       -4.1244906404        1.2127900109
 C          2.8730466475       -2.0272013554        1.5391912187
 H          1.8510579719       -2.1160887193        1.9198451632
 H          3.5258661114       -1.9473436085        2.4146956623
 H          4.1679612392       -1.2118596238       -2.4247438744
 H          5.7614647235       -1.9534922854       -2.3224922834
 H          5.8462970252       -0.3388678250       -0.6534511937
 H          5.3863355133       -1.7569114189        0.3025613752
 O          3.7811779539        0.8755423703       -0.7046299699
 C          2.7388670385        1.7702423312       -0.5167660218
 O          2.8187128493        2.7818933473       -1.2402396057
 O          0.8697894801       -0.1390047495        1.9162944641
 C          0.6103201789        2.3776977301        0.7572415885
 C         -0.5459939586        2.1165532993       -0.1770026815
 C         -0.4271484163        2.3174859057       -1.5480775654
 C         -1.4868527759        2.0365071050       -2.3917359833
 C         -2.6836126466        1.5546794027       -1.8885526873
 C         -2.8096765095        1.3487587277       -0.5217631939
 C         -1.7446772618        1.6307687231        0.3239140730
 H         -1.8424090970        1.4504629375        1.3858505426
 N         -4.0266123115        0.8519500982       -0.0053349427
 S         -4.4295778309       -0.7238401493       -0.4060931282
 O         -4.4961990814       -0.8360652018       -1.8401164442
 O         -5.6449018821       -1.0101285771        0.3206999291
 C         -3.0928396752       -1.7169876192        0.2313522843
 C         -3.2377365729       -2.3242040668        1.4626724408
 C         -2.1790839814       -3.0531781135        1.9791645101
 C         -0.9972067505       -3.1533446806        1.2622684280
 C         -0.8647625594       -2.5301975564        0.0318491550
 C         -1.9199396257       -1.8016528118       -0.4918067151
 H         -1.8513727073       -1.3054526457       -1.4469282423
 H          0.0601493474       -2.6034821191       -0.5166976325
 H         -0.1708760109       -3.7178892024        1.6645736786
 H         -2.2758409537       -3.5360290337        2.9384105645
 H         -4.1764183599       -2.2235563260        1.9838562439
 H         -4.1023137819        0.9586858611        0.9971248069
 H         -3.5117518283        1.3152997765       -2.5354753415
 H         -1.3812504114        2.1946946884       -3.4545777152
 H          0.5087480989        2.6814936679       -1.9451155585
 H          0.2892870724        2.0888719293        1.7674083829
 C          0.9767944295        3.8472197953        0.7770385615
 C          0.1127270558        4.7962455744        1.5502177643
 C          1.4860711192        4.4584178213        2.0462296491
 H          2.2603281704        5.2078043372        1.9806682536
 H          1.5724045913        3.8177867878        2.9118883477
 H         -0.0603900553        5.7809042326        1.1442445544
 H         -0.7328678859        4.3857953784        2.0813547908
 H          1.4081322962        4.2008654448       -0.1494948686
