  62
        -98.93916942
 C         -1.8620883995       -0.8531948658       -0.1973217931
 C         -2.4679044731       -0.2536362580        0.9295025921
 C         -3.5646244599        0.6942573830        0.6657429815
 C         -3.9153435605        0.9590162237       -0.6069118818
 C         -4.9526762673        1.9032425274       -1.1784014245
 C         -6.0350299203        2.5090320219       -0.2885200512
 C         -7.0540053062        1.5064364064        0.2521708155
 H         -7.6659273439        1.1504723173       -0.5804745551
 H         -7.7125785070        2.0308863957        0.9480174409
 C         -6.4679390611        0.2813166229        0.9494671955
 H         -5.8875789566       -0.3051714912        0.2342556710
 H         -7.3008457850       -0.3458370539        1.2787005862
 C         -5.5989639363        0.5770083323        2.1702473452
 H         -5.3834970755       -0.3769264559        2.6590421648
 H         -6.1554333336        1.1959592012        2.8766989994
 C         -4.2520805533        1.2598092286        1.8752499270
 H         -3.5858795728        1.0715949556        2.7224398406
 H         -4.3660354247        2.3375479323        1.7844692601
 H         -6.5775798618        3.2294925093       -0.9067725967
 H         -5.5842486918        3.0707742750        0.5243627401
 H         -4.3869988678        2.7203667809       -1.6401420140
 H         -5.4288774812        1.3583337193       -1.9997338832
 O         -3.2740951083        0.3817635170       -1.6654643268
 C         -2.2464133668       -0.5325478697       -1.4979932815
 O         -1.7720871562       -0.9720955461       -2.5614861900
 H          0.3057665594        0.5661183776        0.3297762468
 C          0.9237621082       -0.0336107159       -0.3271875557
 C          0.5339629166       -1.3361591398       -0.6171069578
 C          1.3448173166       -2.0993311200       -1.4460056939
 C          2.4935437546       -1.5562629943       -1.9968673747
 C          2.8642631838       -0.2527131173       -1.7261952556
 C          2.0719535100        0.5125446215       -0.8786361098
 N          2.4485436094        1.8323496845       -0.5796491386
 S          4.0574412873        2.1345501689       -0.2341753082
 O          4.0476462038        3.2992453555        0.6231181719
 O          4.8017229130        2.2652842104       -1.4620742626
 C          4.6238874877        0.7004827604        0.6638763007
 C          3.9857862682        0.3786013215        1.8454670464
 C          4.3916190134       -0.7487746131        2.5405909062
 C          5.4236603840       -1.5311678730        2.0449842410
 C          6.0579350720       -1.1914676806        0.8603481840
 C          5.6546657301       -0.0659328797        0.1597093169
 H          6.1176546442        0.2330945073       -0.7665063896
 H          6.8612204663       -1.8004787678        0.4782926140
 H          5.7343882845       -2.4101093811        2.5873665464
 H          3.8986425715       -1.0137772417        3.4622451417
 H          3.1891943697        1.0091252655        2.2074584663
 H          1.8350450750        2.2990704519        0.0713287975
 H          3.7437482739        0.1897756930       -2.1649152652
 H          3.1065821251       -2.1565196888       -2.6514198098
 H          1.0723073466       -3.1166241558       -1.6725207265
 C         -0.7376317073       -1.8509215296        0.0114859522
 H         -0.5855021291       -1.8932821043        1.1003405080
 C         -1.1483113242       -3.2240498020       -0.4759994789
 C         -0.5621799224       -4.4534107992        0.1495022607
 C         -1.9897969721       -4.0850751907        0.4162272362
 H         -2.7715644101       -4.6811189253       -0.0302586901
 H         -2.2453327366       -3.6904728740        1.3889379756
 H          0.1528669928       -4.3160476018        0.9462144868
 H         -0.3644645086       -5.3079838273       -0.4796934288
 H         -1.3675963850       -3.2406195900       -1.5376578363
 O         -2.0993384492       -0.4884927454        2.1128059196
