  62
        -98.93863340
 C         -0.7599334634       -1.4354640974        0.2161818773
 C         -1.6883333176       -1.0156326882        1.1981183570
 C         -2.5555513812        0.1255585443        0.8541509634
 C         -2.3936431318        0.7384427847       -0.3329298971
 C         -3.1197840304        1.9072834483       -0.9652265963
 C         -4.3800983877        2.4826765716       -0.3255547425
 C         -5.6088756148        1.5767502116       -0.4150249760
 H         -5.9453444737        1.5539315432       -1.4545339162
 H         -6.4079980402        2.0195018957        0.1831845410
 C         -5.3979772139        0.1314640952        0.0288319240
 H         -4.6428528577       -0.3403731309       -0.6029730232
 H         -6.3352426511       -0.4085496995       -0.1307138680
 C         -5.0025387505       -0.0502313046        1.4924530487
 H         -5.0196240316       -1.1217300424        1.7108662992
 H         -5.7403204030        0.4325141898        2.1365195304
 C         -3.6075627633        0.4763411791        1.8672436670
 H         -3.3036127142       -0.0064495138        2.8011402688
 H         -3.6258054120        1.5482972801        2.0490768804
 H         -4.6128099944        3.4040250483       -0.8661658477
 H         -4.1829173336        2.7649807972        0.7045070556
 H         -3.3490560019        1.5974047862       -1.9898604943
 H         -2.3732762460        2.7030529500       -1.0446414764
 O         -1.4187626749        0.3570610570       -1.2083868476
 C         -0.5878825135       -0.7274524487       -0.9724308124
 O          0.2340364150       -0.9384329674       -1.8818005768
 O         -1.7948215956       -1.5761780344        2.3229054559
 C          0.1159349540       -2.6332377605        0.5318284211
 C          1.5522225722       -2.3377187879        0.1803860390
 C          2.3459108298       -3.1688606379       -0.5990122855
 C          3.6570643816       -2.8239586621       -0.8782675365
 C          4.1976889088       -1.6446705365       -0.4021920143
 C          3.4091888127       -0.8042339410        0.3778400645
 C          2.1061492805       -1.1632531583        0.6763220839
 H          1.5051504290       -0.5076116244        1.2902600430
 N          3.9288403945        0.4031020942        0.8692040088
 S          2.9804458204        1.7277846543        1.1873812630
 O          3.9331343809        2.8064071857        1.3565799198
 O          2.1243934987        1.4787217967        2.3223992552
 C          1.9807493491        2.0974631996       -0.2465262429
 C          0.9882065151        3.0387852677       -0.0531485072
 C          0.2331491074        3.4565640562       -1.1354011627
 C          0.4681547150        2.9132186597       -2.3892126616
 C          1.4615213575        1.9653601499       -2.5660016194
 C          2.2367872039        1.5598319707       -1.4902156348
 H          3.0073661980        0.8182218188       -1.6214000164
 H          1.6352010992        1.5294839456       -3.5361964103
 H         -0.1286903866        3.2272324540       -3.2310559058
 H         -0.5295375251        4.2071306299       -0.9964853743
 H          0.8281664131        3.4215572628        0.9427547312
 H          4.8373486283        0.6648537893        0.5168285191
 H          5.2155091029       -1.3689826248       -0.6324336883
 H          4.2627188683       -3.4773703239       -1.4875599664
 H          1.9357310749       -4.0777703767       -1.0063777822
 H          0.0551908949       -2.7347033588        1.6292337661
 C         -0.3933028045       -3.9423837405       -0.0551654973
 C         -1.8359624056       -4.1212297971       -0.4199677342
 C         -0.7941602440       -4.0606778024       -1.4942317763
 H         -0.5514968130       -4.9711027910       -2.0224543911
 H         -0.7304999399       -3.1709106484       -2.1006119531
 H         -2.3033452554       -5.0707198931       -0.2053182138
 H         -2.4944300125       -3.2737437164       -0.2954463670
 H          0.0944106332       -4.8048331763        0.3887352503
