  62
        -98.93573641
 C         -2.1925288371       -1.2202352489       -0.1066089215
 C         -2.9670118903       -0.5318617907        0.8528563903
 C         -3.8508269217        0.5365652075        0.3502820358
 C         -3.8405943208        0.8257139231       -0.9637306913
 C         -4.6462626757        1.8588941281       -1.7102974501
 C         -4.7653842545        3.2456761643       -1.0594302554
 C         -6.1665068683        3.5492023003       -0.5257861864
 H         -6.2975704534        4.6328013465       -0.4845810963
 H         -6.8998738183        3.1591776977       -1.2345168890
 C         -6.4660544563        2.9952550183        0.8661083736
 H         -5.9069963293        3.5664546744        1.6106238158
 H         -7.5282894474        3.1563716473        1.0643244376
 C         -6.1510363550        1.5108148836        1.0614841419
 H         -6.7547064465        1.1486325213        1.8963795860
 H         -6.4470786627        0.9382861617        0.1832735356
 C         -4.6778670146        1.2331468103        1.3965283141
 H         -4.1778453756        2.1640764338        1.6805188945
 H         -4.6169334973        0.5823924849        2.2746373277
 H         -4.5266751728        3.9912085049       -1.8196760349
 H         -4.0269533905        3.3483405675       -0.2655894824
 H         -4.1588227488        1.9465697758       -2.6839012641
 H         -5.6427069092        1.4509405926       -1.8970952876
 O         -3.0545837607        0.1507577403       -1.8509544052
 C         -2.2190536698       -0.8809760793       -1.4586824189
 O         -1.5663739371       -1.3962496109       -2.3844390633
 H         -0.0568055148       -0.0139940484        0.7750332853
 C          0.6259901356       -0.7290824499        0.3310544299
 C          0.1629822346       -2.0034581897        0.0257359062
 C          1.0548461753       -2.9139941287       -0.5250301795
 C          2.3647605385       -2.5456413024       -0.7807597793
 C          2.8144542806       -1.2706505474       -0.4928870226
 C          1.9351837745       -0.3555393125        0.0716928817
 N          2.3809560646        0.9469297210        0.3625009845
 S          3.7594713403        1.1087232954        1.3102447582
 O          3.9183219253       -0.0133769014        2.2062273649
 O          3.6430320246        2.4123938972        1.9268703191
 C          5.0917218766        1.1419666616        0.1301748569
 C          6.1223118493        0.2278513582        0.2290562055
 C          7.1541680795        0.2793775415       -0.6953154189
 C          7.1371581758        1.2390030192       -1.6958731452
 C          6.0956520507        2.1512959094       -1.7797779781
 C          5.0617856471        2.1061291942       -0.8582693852
 H          4.2365290779        2.7980896298       -0.8859718811
 H          6.0856271192        2.8959610979       -2.5593588353
 H          7.9403324092        1.2767991723       -2.4147521527
 H          7.9647000523       -0.4286737964       -0.6317303362
 H          6.0896724932       -0.5035105628        1.0207756623
 H          1.6503747310        1.5549918776        0.7035428433
 H          3.8311121245       -0.9782221541       -0.6985901954
 H          3.0444088096       -3.2624868220       -1.2155165275
 H          0.7239202627       -3.9124313785       -0.7585807450
 C         -1.2733894513       -2.3385964624        0.3471260491
 H         -1.3737340947       -2.3735884993        1.4428173901
 C         -1.7308799398       -3.6637603058       -0.2253705838
 C         -1.4808926752       -4.9380727336        0.5228669265
 C         -2.8687979712       -4.3805560178        0.4353704878
 H         -3.5918755832       -4.8853920989       -0.1873924169
 H         -3.2953962159       -3.9251927557        1.3173900108
 H         -1.2528991222       -5.8305528879       -0.0401023251
 H         -0.9665414548       -4.8693562838        1.4695960959
 H         -1.6868707460       -3.6852178266       -1.3083979197
 O         -2.9228589061       -0.7954288060        2.0867690998
