  62
        -98.94006743
 C         -2.4344027160        0.9619539529       -0.0315956934
 C         -3.6905731362        0.9018376833       -0.6892355311
 C         -4.7163056979        0.0585144257       -0.0625836545
 C         -4.4151425403       -0.6114467647        1.0643016625
 C         -5.3439808685       -1.5480004027        1.7799501770
 C         -5.1761309114       -2.9888315181        1.2776175420
 C         -5.2017105498       -3.1194316443       -0.2452701556
 H         -4.3246284860       -2.6177256025       -0.6606960938
 H         -5.1059168789       -4.1812673154       -0.4821753838
 C         -6.4675201102       -2.5598513444       -0.9094509220
 H         -6.8160140019       -3.2751928829       -1.6574048058
 H         -7.2602403326       -2.4553904380       -0.1677117295
 C         -6.2688896793       -1.2247443014       -1.6294507662
 H         -5.4145438133       -1.2971784983       -2.3072213327
 H         -7.1549765880       -1.0325364529       -2.2402906414
 C         -6.0637718589       -0.0027642891       -0.7252901198
 H         -6.8613254244        0.0419086078        0.0192653475
 H         -6.1300894232        0.8899598115       -1.3542314200
 H         -4.2182975092       -3.3713728634        1.6375643208
 H         -5.9706140130       -3.5994709370        1.7103926156
 H         -5.1118138323       -1.5148998636        2.8457936452
 H         -6.3700722023       -1.2171140565        1.6311164815
 O         -3.1976278122       -0.5458560212        1.6569414660
 C         -2.1711189933        0.2286480282        1.1268969703
 O         -1.1143166633        0.1685501865        1.7806667716
 O         -3.9413629888        1.5250199970       -1.7553258890
 C         -1.3562672367        1.8192245243       -0.6716655601
 C         -0.0710263804        1.0413512445       -0.7906247001
 C          0.0176785671        0.0258531096       -1.7385113846
 C          1.1738822232       -0.7190228839       -1.8708148896
 C          2.2656293057       -0.4709566804       -1.0573181209
 C          2.1872529890        0.5375678288       -0.1071731321
 C          1.0275309246        1.2923245509        0.0153952203
 H          0.9723990529        2.0608093128        0.7709296699
 N          3.2831347253        0.7784671676        0.7365791607
 S          4.8109068805        0.9242273605        0.0671746926
 O          5.5666333264        1.7154387894        1.0139205969
 O          4.7502447653        1.4298306998       -1.2850478005
 C          5.4455804882       -0.7394020686        0.0683457387
 C          5.4421095614       -1.4368530038        1.2603759057
 C          5.9459919813       -2.7274490680        1.2818013970
 C          6.4446607396       -3.2946615978        0.1184005927
 C          6.4433716452       -2.5804743169       -1.0698556944
 C          5.9398447327       -1.2891584605       -1.0981518790
 H          5.9136471109       -0.6982507088       -1.9999099630
 H          6.8309839792       -3.0235378925       -1.9731415215
 H          6.8361460336       -4.2995135043        0.1383696605
 H          5.9474541329       -3.2862457411        2.2038709757
 H          5.0474522008       -0.9607212470        2.1425112235
 H          3.1144548297        1.4823764578        1.4397565184
 H          3.1696823065       -1.0503799627       -1.1509008678
 H          1.2264976285       -1.5030527541       -2.6110351213
 H         -0.8377048583       -0.1748202059       -2.3694101657
 H         -1.7312441692        2.0080865299       -1.6913078310
 C         -1.1697626242        3.1845237481       -0.0265177717
 C         -2.3451543755        3.9378085844        0.5184859572
 C         -1.2921611598        3.4181097917        1.4484114470
 H         -0.6216598879        4.1296628946        1.9090024826
 H         -1.5276482938        2.5733324769        2.0762375361
 H         -2.4014073787        5.0017264926        0.3444308218
 H         -3.3039395895        3.4404504115        0.5042957917
 H         -0.4211040906        3.7734784916       -0.5491285134
