  62
        -98.94874205
 C          2.0491260243        1.0161623963       -0.1771691111
 C          1.1820500498        1.7588210569       -1.0117342688
 C          0.2663362855        2.6777293199       -0.3300217255
 C          0.2879902414        2.7634783495        1.0127156553
 C         -0.5931267028        3.6464922357        1.8542469659
 C         -1.9750452972        3.0402987636        2.1368994855
 C         -2.9470037680        3.0628009458        0.9560910255
 H         -3.9390742059        2.8419677243        1.3547798207
 H         -2.9803442150        4.0666963628        0.5307572528
 C         -2.6221566637        2.0403602227       -0.1417133969
 H         -1.9521433637        1.2788881889        0.2654855567
 H         -3.5383918090        1.5265247110       -0.4427599055
 C         -2.0022039345        2.6342353418       -1.4064057343
 H         -2.7298989855        3.2820458724       -1.9002681268
 H         -1.7654358891        1.8114415924       -2.0854463550
 C         -0.7182712194        3.4383966961       -1.1672948984
 H         -0.2491743301        3.6286314389       -2.1360389507
 H         -0.9541166364        4.3936814252       -0.6989043765
 H         -2.4185871204        3.6055953505        2.9602747197
 H         -1.8386493201        2.0085081596        2.4724464096
 H         -0.7091597000        4.6195289482        1.3753426109
 H         -0.0757832901        3.7851804732        2.8060911439
 O          1.1527294329        2.0497538246        1.7802147621
 C          2.0174024832        1.1273664200        1.2134280843
 O          2.7115831506        0.4983699237        2.0366371461
 O          1.1691414142        1.6503841176       -2.2689948965
 C          2.9511194770       -0.0299128500       -0.8061782213
 C          2.5317842516       -1.4009320217       -0.3311769594
 C          3.4269440034       -2.4171431516       -0.0260309259
 C          2.9635570136       -3.6382827576        0.4345999214
 C          1.6118844683       -3.8638930050        0.6153889240
 C          0.7050151186       -2.8569908861        0.2985629043
 C          1.1718289038       -1.6532494855       -0.1990723082
 H          0.4716019893       -0.8653699365       -0.4316378254
 N         -0.6759038645       -3.0581754133        0.4557745627
 S         -1.7165089998       -1.8705570433        1.0241555890
 O         -1.0089887362       -0.6830509739        1.4368338360
 O         -2.5252311439       -2.5158770309        2.0389056842
 C         -2.7645874189       -1.5049017029       -0.3727553891
 C         -2.2150948569       -1.3115880325       -1.6241600394
 C         -3.0514152393       -0.9893829440       -2.6818241514
 C         -4.4165357815       -0.8663645539       -2.4747598874
 C         -4.9553817452       -1.0696731955       -1.2138549285
 C         -4.1237389195       -1.3903774974       -0.1527409969
 H         -4.4986730377       -1.5591970244        0.8435021874
 H         -6.0173507808       -0.9767268371       -1.0528718038
 H         -5.0613609548       -0.6118688501       -3.3008809174
 H         -2.6295867747       -0.8326078491       -3.6619001564
 H         -1.1507913613       -1.4101496741       -1.7652591523
 H         -0.9179446188       -3.9477012329        0.8674446871
 H          1.2564799368       -4.8069978281        1.0023518056
 H          3.6681593681       -4.4200687264        0.6750058034
 H          4.4861510493       -2.2502573959       -0.1347773558
 H          2.7613894531        0.0334643138       -1.8889106869
 C          4.4110285051        0.2766853958       -0.5493675531
 C          5.4557381022       -0.1141660105       -1.5507739854
 C          5.0853887803        1.3272586326       -1.3784614977
 H          5.7887660188        1.9900982855       -0.8974386734
 H          4.4966068536        1.8014257847       -2.1501269073
 H          6.4193040217       -0.4403170017       -1.1892288663
 H          5.1264175783       -0.6160538128       -2.4479908955
 H          4.6644286632        0.2309742265        0.5038324992
