  62
        -98.94586010
 C          2.0797809342        1.0499324681       -0.4700425464
 C          1.1008914295        1.4670548699       -1.4082300768
 C          0.2815887362        2.6233052425       -1.0350106682
 C          0.4588050063        3.1960430880        0.1690813078
 C         -0.2985645376        4.3785835847        0.7092316826
 C         -1.6508351550        4.0075184687        1.3334250213
 C         -2.7556081873        3.6712929660        0.3310477017
 H         -3.6977452506        3.6692242282        0.8829025494
 H         -2.8170553252        4.4602373205       -0.4199870093
 C         -2.5873717995        2.3096750408       -0.3575001540
 H         -1.8956939718        1.6939957381        0.2231612032
 H         -3.5459421180        1.7837066391       -0.3620578422
 C         -2.1077309162        2.3858005757       -1.8067409680
 H         -2.8600485354        2.8969715741       -2.4120113625
 H         -2.0079061023        1.3660026910       -2.1827883077
 C         -0.7635700464        3.0995043277       -1.9997480744
 H         -0.4035360068        2.8807948406       -3.0083903961
 H         -0.8950111966        4.1774140336       -1.9025200518
 H         -1.9789838822        4.8586364363        1.9352368269
 H         -1.5032597478        3.1581200359        2.0059083364
 H         -0.4489074244        5.1149302113       -0.0812411725
 H          0.3301069009        4.8220692953        1.4845396062
 O          1.3928958840        2.7611329906        1.0508928433
 C          2.2057031502        1.6657249261        0.7768364594
 O          2.9831844115        1.3840682405        1.7072230877
 O          0.9289317069        0.8939295560       -2.5188702911
 C          2.8903082677       -0.1774103190       -0.8547112658
 C          2.0768372658       -1.4196323723       -0.5845943795
 C          2.0596612365       -2.4900180692       -1.4716560592
 C          1.2670929692       -3.5972537446       -1.2234681115
 C          0.4391847778       -3.6365028065       -0.1152211228
 C          0.4394838904       -2.5646708942        0.7690697552
 C          1.2852307597       -1.4879794674        0.5523599866
 H          1.2826140103       -0.6719138550        1.2583312346
 N         -0.4477887281       -2.5014240021        1.8653216689
 S         -1.5796207115       -1.2616037074        1.7800946018
 O         -0.9206753229        0.0173817776        1.8043276363
 O         -2.5094444816       -1.5274934533        2.8560916472
 C         -2.3834090964       -1.5340117232        0.2108366887
 C         -3.5789030649       -2.2263819652        0.1887975588
 C         -4.1646736849       -2.5178145284       -1.0323255813
 C         -3.5387642183       -2.1296539145       -2.2075878478
 C         -2.3362898718       -1.4413452907       -2.1689133337
 C         -1.7509300451       -1.1355883453       -0.9499507846
 H         -0.8212051625       -0.5907219693       -0.8972434191
 H         -1.8386999002       -1.1370601422       -3.0764979260
 H         -3.9889264771       -2.3627892512       -3.1594971755
 H         -5.1016261745       -3.0501218231       -1.0640995111
 H         -4.0259389278       -2.5104919691        1.1278326838
 H         -0.9279010740       -3.3719865721        2.0509727874
 H         -0.2112382957       -4.4803410620        0.0585058332
 H          1.2694256674       -4.4247865218       -1.9158944866
 H          2.6562432791       -2.4415172572       -2.3704942024
 H          3.0228857488       -0.1086666074       -1.9471976526
 C          4.2742711093       -0.2321910464       -0.2284679650
 C          4.6097934653       -1.1307530965        0.9199619666
 C          5.1588385147       -1.4250395649       -0.4418889277
 H          6.2099900164       -1.2582741228       -0.6213941612
 H          4.7462528950       -2.2690805138       -0.9726195359
 H          5.2681193482       -0.7439686410        1.6824029824
 H          3.8289970479       -1.7666339068        1.3085786913
 H          4.7570766328        0.7393011431       -0.2321045265
