  62
        -98.94369464
 C          1.8125054216        0.8603768670        0.8126988279
 C          2.0331634126        0.3992223564       -0.5077286471
 C          3.4357860295        0.3693136411       -0.9414739740
 C          4.4042312301        0.7928338020       -0.1090199169
 C          5.8765641675        0.8417161623       -0.4158830109
 C          6.6054011733       -0.4895166701       -0.1865904954
 C          6.3091317346       -1.5796494555       -1.2173761837
 H          6.4665349928       -1.1818320530       -2.2203607793
 H          7.0426773812       -2.3736013712       -1.0632315462
 C          4.9008113566       -2.1822856052       -1.1154735340
 H          4.4691841454       -1.9384964151       -0.1419083356
 H          4.9657432779       -3.2712705370       -1.1715246073
 C          3.9357041132       -1.7288456604       -2.2109217316
 H          2.9609602336       -2.1842630843       -2.0179818093
 H          4.2894393605       -2.0855198061       -3.1808332056
 C          3.7402578961       -0.2091092315       -2.2902212211
 H          4.6243230999        0.2628723055       -2.7181999609
 H          2.8843207416       -0.0072188846       -2.9384761913
 H          6.3576053246       -0.8557408624        0.8124877737
 H          7.6777509654       -0.2817161046       -0.2070760492
 H          6.3087391048        1.5898582118        0.2521814175
 H          6.0262457405        1.1673734458       -1.4455435549
 O          4.1449904326        1.2560778949        1.1434901135
 C          2.8522847994        1.2771485232        1.6425667764
 O          2.7609192429        1.6834070873        2.8194778041
 O          1.1127246611        0.0335443979       -1.2828269988
 C          0.4003375153        0.9015407319        1.3666744615
 C         -0.2257822689       -0.4696886651        1.2890569388
 C          0.5028615197       -1.5722470709        1.7287524108
 C         -0.0327966087       -2.8433841719        1.6654592079
 C         -1.3105391435       -3.0426806991        1.1722239000
 C         -2.0506158571       -1.9492378000        0.7403918732
 C         -1.5075343390       -0.6725732508        0.8040452695
 H         -2.0987374605        0.1634125111        0.4720025457
 N         -3.3323340677       -2.1240305602        0.2057299503
 S         -4.5183522865       -0.9630390472        0.3690497268
 O         -4.4825168689       -0.3381459858        1.6709473450
 O         -5.7454208344       -1.6558416713        0.0371626123
 C         -4.1685555845        0.2375873289       -0.8984651710
 C         -3.6655620647       -0.1854234602       -2.1124688719
 C         -3.4222561502        0.7561796828       -3.0994796986
 C         -3.6910933321        2.0953290181       -2.8612728066
 C         -4.2036612649        2.5031585308       -1.6395979516
 C         -4.4463510361        1.5667726336       -0.6470662622
 H         -4.8338090437        1.8404976151        0.3217088188
 H         -4.4119955834        3.5454447546       -1.4562906243
 H         -3.4976632574        2.8257192279       -3.6311212388
 H         -3.0186993743        0.4430951574       -4.0489519249
 H         -3.4592213163       -1.2316776037       -2.2642452494
 H         -3.6976325603       -3.0637144397        0.2380735911
 H         -1.7288601020       -4.0362143595        1.1179734743
 H          0.5473465349       -3.6885793242        2.0047031620
 H          1.5011540189       -1.4172920291        2.1161424688
 H          0.4941216716        1.1733864019        2.4286833588
 C         -0.4013029942        1.9738770278        0.6579828454
 C         -1.5235018313        2.6720276674        1.3634977838
 C         -0.2419848413        3.3991420939        1.0906416689
 H         -0.2368992492        4.1702036472        0.3352286571
 H          0.4254946874        3.5934156639        1.9178541560
 H         -2.3981501731        2.9438722921        0.7923345017
 H         -1.7381714349        2.3763535473        2.3796060413
 H         -0.5058110413        1.7812423853       -0.4038751621
