  62
        -98.94474270
 C         -1.4179888476       -0.7839850810        0.3304910288
 C         -2.4199143630       -0.8161897388       -0.6707551243
 C         -3.3164088614        0.3504143260       -0.7181896361
 C         -3.1129924031        1.3821235899        0.1193828293
 C         -3.9785135836        2.6049999779        0.2043587188
 C         -5.0962032987        2.4212451281        1.2407208693
 C         -5.8679229145        1.1099008364        1.0925213698
 H         -5.1985806455        0.2749648899        1.3126308636
 H         -6.6484677117        1.1044409331        1.8565411979
 C         -6.5034573582        0.8987302079       -0.2887930492
 H         -7.5239353745        0.5346252002       -0.1519620132
 H         -6.5679844141        1.8510509845       -0.8164086299
 C         -5.7811761289       -0.1216514390       -1.1706597833
 H         -6.4275068588       -0.3522782739       -2.0217370194
 H         -5.6340590813       -1.0492264293       -0.6115652428
 C         -4.4251574583        0.3235841160       -1.7325912365
 H         -4.1226736372       -0.4072335238       -2.4880278051
 H         -4.5292683399        1.2959241066       -2.2177536870
 H         -5.7863997290        3.2627896072        1.1574414377
 H         -4.6511193307        2.4446213376        2.2382827876
 H         -4.4071826797        2.8100401770       -0.7745775470
 H         -3.3558836863        3.4498505644        0.5032094699
 O         -2.1067337856        1.4030940295        1.0306869575
 C         -1.2608755099        0.3175661442        1.1768156666
 O         -0.4144824617        0.4520099966        2.0842217948
 O         -2.5815982549       -1.7571391153       -1.4908894038
 C         -0.4249163676       -1.9154182247        0.5516636455
 C          0.7187833303       -1.8044305468       -0.4283741965
 C          0.5399504807       -2.0252115302       -1.7903200459
 C          1.6051126051       -1.9007028885       -2.6628162395
 C          2.8596859930       -1.5414532746       -2.2014081413
 C          3.0478138304       -1.3149322007       -0.8434183896
 C          1.9804379371       -1.4577343302        0.0328010788
 H          2.1425570636       -1.2853793837        1.0860217091
 N          4.3116955463       -0.9586030523       -0.3443122895
 S          4.4500756318        0.2662809030        0.7880646607
 O          5.8539220418        0.6157838345        0.7609937359
 O          3.9322016959       -0.1723575338        2.0577316388
 C          3.4848300988        1.6074852283        0.1181261029
 C          2.1761334425        1.7961493191        0.5114162481
 C          1.4399383250        2.8075285626       -0.0870915589
 C          2.0179074609        3.6083221918       -1.0588341027
 C          3.3374070542        3.4093522334       -1.4380162128
 C          4.0768182020        2.3974871526       -0.8496084962
 H          5.1078172625        2.2162101896       -1.1072875117
 H          3.7874115458        4.0373557570       -2.1898808802
 H          1.4374534919        4.3924376080       -1.5190302185
 H          0.4146340765        2.9526361259        0.2170674719
 H          1.7365795648        1.1704153551        1.2724392796
 H          5.0263847007       -0.8702170711       -1.0525228147
 H          3.6887400405       -1.4399782525       -2.8850925066
 H          1.4557005114       -2.0774488142       -3.7171589106
 H         -0.4425521896       -2.2781982676       -2.1571245097
 H         -0.0118281833       -1.7550796996        1.5572808151
 C         -1.0582335479       -3.2920802265        0.5147559632
 C         -0.3342963032       -4.4339729616        1.1593508991
 C         -1.5831227298       -3.8890166293        1.7839618224
 H         -2.4844730728       -4.4819019617        1.7409409651
 H         -1.4875964377       -3.3062480022        2.6892040850
 H         -0.3761434216       -5.4034812498        0.6873650437
 H          0.6082607605       -4.2197811277        1.6413708783
 H         -1.6111775908       -3.4924738750       -0.3927907781
