  62
        -98.94280989
 C         -2.6666704617       -0.8958553854        0.0394632052
 C         -3.2203400354       -0.0004054245        0.9846872479
 C         -3.6058785533        1.3174447396        0.4680388863
 C         -3.4256341441        1.6023972992       -0.8347076738
 C         -3.7790449430        2.8977536515       -1.5138312669
 C         -2.7018740411        3.9833765577       -1.3809799372
 C         -2.5844488678        4.6165005585        0.0061327035
 H         -1.9531874587        5.5010133838       -0.0987628959
 H         -3.5678579011        4.9535826142        0.3353281791
 C         -1.9697555945        3.6973042171        1.0709115881
 H         -1.4497366591        2.8708276817        0.5790943009
 H         -1.2175982616        4.2502288827        1.6385294805
 C         -2.9736163563        3.1316008582        2.0760866864
 H         -3.4001240292        3.9472940393        2.6637569825
 H         -2.4375895698        2.4685040692        2.7600668924
 C         -4.1208668184        2.3327394322        1.4435211800
 H         -4.6424655068        1.7947601791        2.2387995534
 H         -4.8243667145        3.0065647892        0.9556350989
 H         -2.9434422085        4.7718246822       -2.0975462489
 H         -1.7372229406        3.5575354409       -1.6696089362
 H         -4.7252420164        3.2721531894       -1.1223064057
 H         -3.9063062511        2.6677093906       -2.5737871367
 O         -2.8980959113        0.7096250134       -1.7146804622
 C         -2.4817841992       -0.5474768023       -1.2987735301
 O         -1.9812981527       -1.2462481781       -2.2004272899
 O         -3.3758317541       -0.2856530756        2.2028040911
 C         -2.1991819793       -2.2635053085        0.5042999651
 C         -0.7206836133       -2.4074287923        0.2368231946
 C         -0.1503085040       -3.5251460392       -0.3571933538
 C          1.2089321621       -3.5636824161       -0.6173638570
 C          2.0286305821       -2.5004577974       -0.2864072123
 C          1.4712746572       -1.3844839947        0.3234147334
 C          0.1116164603       -1.3517974151        0.5880153735
 H         -0.3196182723       -0.4752129983        1.0578293400
 N          2.2933260116       -0.2937781018        0.6802969037
 S          3.1116684158        0.5362557676       -0.5383207592
 O          2.6109224221        1.8953349498       -0.5666040686
 O          3.0494131625       -0.1992970942       -1.7774116384
 C          4.7964700096        0.5519328719        0.0505421458
 C          5.2992886095       -0.5650758674        0.6877795583
 C          6.6195777873       -0.5588594309        1.1099499003
 C          7.4125277310        0.5567459370        0.8878986564
 C          6.8929156974        1.6717309312        0.2487535196
 C          5.5732124690        1.6714248110       -0.1757508632
 H          5.1263743301        2.5186763662       -0.6703785840
 H          7.5087298436        2.5402621635        0.0789720921
 H          8.4396514551        0.5582431940        1.2169649041
 H          7.0238875504       -1.4236123720        1.6111451556
 H          4.6534618327       -1.4114106722        0.8536476554
 H          1.8032256108        0.3871606039        1.2439364561
 H          3.0795380258       -2.5146833057       -0.5246456224
 H          1.6351712114       -4.4337015088       -1.0933199392
 H         -0.7725829057       -4.3603041307       -0.6337935532
 H         -2.3578436114       -2.2735850363        1.5931483943
 C         -3.0401357663       -3.3557220147       -0.1212853346
 C         -3.2514846309       -4.6534341970        0.5981474483
 C         -4.3766141552       -3.6713196019        0.4784215184
 H         -5.1971756790       -3.9010651658       -0.1844780927
 H         -4.6685122645       -3.1146534704        1.3569872991
 H         -3.3028763557       -5.5620123747        0.0174674026
 H         -2.7836831344       -4.7713957961        1.5637160525
 H         -2.9598414109       -3.3726010581       -1.2025505475
