  62
        -98.94625747
 C          2.3947426395        0.4977601517       -0.0118661686
 C          1.4050553191        0.7113811509        0.9750148812
 C          0.7371887082        2.0182865704        0.9522040511
 C          1.0902298178        2.9172542208        0.0158354214
 C          0.4057062370        4.2322793603       -0.2244566287
 C         -0.9036140026        3.9906995595       -1.0046632491
 C         -2.1750002731        4.3431077285       -0.2315299594
 H         -2.2866787939        5.4296370485       -0.2053290493
 H         -3.0166025627        3.9357082880       -0.7964268797
 C         -2.2449427732        3.8264341083        1.2089035805
 H         -3.2876046133        3.9032242175        1.5242933702
 H         -1.6710507338        4.4859224986        1.8621263508
 C         -1.7700043822        2.3833796386        1.4233031705
 H         -2.4373294421        1.9055795980        2.1441571802
 H         -1.8434231016        1.8137290687        0.4957620104
 C         -0.3364703123        2.2614750895        1.9757682209
 H         -0.0904301631        3.1502548396        2.5633223911
 H         -0.2911067519        1.3976578195        2.6450635108
 H         -0.9400766318        2.9394023695       -1.3019930192
 H         -0.8911288828        4.5746419896       -1.9269250090
 H          0.2028721964        4.7249472701        0.7239294413
 H          1.0851692767        4.8557833209       -0.8062778684
 O          2.0722776382        2.6905710116       -0.8952149184
 C          2.7246847291        1.4696835120       -0.9530959283
 O          3.5673911394        1.3752288527       -1.8704724981
 H          0.8551784708       -0.6713755292       -1.6313971092
 C          0.8876815813       -1.6178532392       -1.1114211893
 C          1.9657456412       -1.9141327486       -0.2867034890
 C          1.9894171919       -3.1476764787        0.3517080808
 C          0.9426371726       -4.0398892494        0.1917073404
 C         -0.1564241474       -3.7140380400       -0.5820760799
 C         -0.1831236081       -2.4871347300       -1.2352380497
 N         -1.2840649481       -2.0934231706       -2.0238852300
 S         -2.1214224792       -0.7139456812       -1.5694542300
 O         -3.1983163790       -0.6009458519       -2.5300873503
 O         -1.2238202600        0.4091497894       -1.4889677896
 C         -2.8075082494       -1.1093498019        0.0296234897
 C         -4.1469653392       -1.4413948429        0.1047595793
 C         -4.6824651993       -1.8050185534        1.3293460691
 C         -3.8701193596       -1.8398471730        2.4529901893
 C         -2.5276726698       -1.5083396120        2.3588839997
 C         -1.9843728197       -1.1394863515        1.1373386099
 H         -0.9429683699       -0.8715615808        1.0519412703
 H         -1.8874365800       -1.5318175517        3.2262489999
 H         -4.2845529197       -2.1253073534        3.4071395192
 H         -5.7272856291       -2.0606128441        1.4031544387
 H         -4.7383739590       -1.3977090832       -0.7955938909
 H         -1.9476845376       -2.8366726110       -2.1951772603
 H         -0.9863545569       -4.3974538506       -0.6809332002
 H          0.9738029731       -4.9940402894        0.6951317003
 H          2.8240713519       -3.4070290182        0.9823212710
 C          3.0456077205       -0.8690040179       -0.1296134086
 H          3.6455624607       -0.8455819073       -1.0514861584
 C          3.9638355903       -1.1259997574        1.0474228717
 C          5.1835203810       -1.9813685765        0.8850763119
 C          5.3243560999       -0.4987789364        1.0501391021
 H          5.7141236793       -0.1152418263        1.9810049923
 H          5.5967521097        0.0917480039        0.1871391423
 H          5.3750693715       -2.4006722563       -0.0911651081
 H          5.4819960312       -2.6157420664        1.7060495319
 H          3.4289513001       -1.1656159879        1.9892478015
 O          1.0821567594       -0.1604542595        1.8259911410
