  62
        -98.94028346
 C          2.6360620500        1.3195063720       -0.0933487281
 C          2.4806382506        0.1623406788       -0.8935397062
 C          3.6960739990       -0.6388798646       -1.0999540207
 C          4.8553937806       -0.2344383374       -0.5493673592
 C          6.1532181262       -0.9834407335       -0.6328651572
 C          6.3148593275       -1.9449497900        0.5528408726
 C          5.0930792051       -2.8295818638        0.8018000332
 H          5.3328742909       -3.4877363839        1.6398129408
 H          4.2548949552       -2.2031767537        1.1164426053
 C          4.6652011670       -3.6750836617       -0.4058501913
 H          4.4526075072       -4.6903688192       -0.0644723441
 H          5.4848172862       -3.7390311006       -1.1224912905
 C          3.4075866775       -3.1736453905       -1.1184866612
 H          2.6075967881       -3.0202782860       -0.3889551036
 H          3.0736591974       -3.9540319979       -1.8077254661
 C          3.5707030751       -1.8836890452       -1.9324441880
 H          4.4201857445       -1.9819591508       -2.6114442578
 H          2.6640626445       -1.7534169540       -2.5306269758
 H          7.1893238411       -2.5725440584        0.3720266618
 H          6.4995416910       -1.3556535501        1.4539878133
 H          6.1890311726       -1.5356233484       -1.5697769481
 H          6.9695496755       -0.2594746205       -0.6157539465
 O          4.9677308147        0.8931378412        0.1982456396
 C          3.8634108345        1.6874542498        0.4579041301
 O          4.0984844354        2.6773645983        1.1800456933
 H         -1.2165953427        1.7949357919       -0.4544980625
 C         -0.9224086740        1.2821032354        0.4476760814
 C          0.3782742252        1.3896426216        0.9095651705
 C          0.7293414043        0.7090256042        2.0731029319
 C         -0.1969342961       -0.0619760864        2.7471930194
 C         -1.4964506727       -0.1687076943        2.2815112726
 C         -1.8577520207        0.5056603558        1.1243218895
 N         -3.1814165762        0.4382629553        0.6521423850
 S         -4.0090608061       -1.0296951483        0.7496312249
 O         -4.4250202276       -1.2293643350        2.1157837916
 O         -3.2265178874       -2.0961751362        0.1658965971
 C         -5.4298353001       -0.6651111859       -0.2619953932
 C         -6.4668026489        0.0610733233        0.2926593938
 C         -7.5638493078        0.3700724813       -0.4953668244
 C         -7.6054367495       -0.0492608352       -1.8169419029
 C         -6.5576419962       -0.7782481866       -2.3589815858
 C         -5.4562553295       -1.0892960661       -1.5767896017
 H         -4.6222141324       -1.6597480212       -1.9537761614
 H         -6.5939801481       -1.1053703637       -3.3856920658
 H         -8.4610293639        0.1910621636       -2.4281026182
 H         -8.3814345712        0.9351014122       -0.0777088604
 H         -6.3943318006        0.3573614405        1.3259221883
 H         -3.2699034194        0.8329643712       -0.2746535800
 H         -2.2255469738       -0.7744479588        2.7945005804
 H          0.0923027727       -0.5887575194        3.6446828592
 H          1.7454154346        0.7886844784        2.4369564055
 C          1.4373122224        2.2028826039        0.2048176326
 H          1.7940145424        2.9720218979        0.9049454979
 C          0.9566482077        2.8818682258       -1.0601758252
 C          0.2060459722        4.1763805616       -0.9793830749
 C          1.6146181596        4.1570660174       -1.4903224179
 H          1.7852004532        4.3189258104       -2.5440725204
 H          2.3973467990        4.5486305698       -0.8569541295
 H          0.0287204718        4.5895027209        0.0019755273
 H         -0.5904452298        4.3572024843       -1.6853988676
 H          0.6838924139        2.1754132707       -1.8357978523
 O          1.3868430743       -0.1842188033       -1.4127106481
