  62
        -98.94014032
 C         -2.0167226688       -0.6919389078        0.9205561217
 C         -2.8709904108       -1.1598225222       -0.1086420647
 C         -4.2652854191       -0.6896409347       -0.0443381985
 C         -4.6472172853        0.1330345763        0.9479965635
 C         -6.0166162714        0.7296585927        1.0921829851
 C         -6.1070793966        2.0901419012        0.3869588263
 C         -5.5730965742        2.0801321967       -1.0455131534
 H         -5.7177223079        3.0831498014       -1.4529797327
 H         -4.4963940742        1.8958809632       -1.0233695570
 C         -6.2448270452        1.0521186988       -1.9667236864
 H         -6.4690710626        1.5323876546       -2.9215778438
 H         -7.1939429094        0.7324085525       -1.5348944400
 C         -5.3890122208       -0.1774080281       -2.2767018730
 H         -5.8621889169       -0.7218868874       -3.0982026256
 H         -4.4022731579        0.1417954566       -2.6213160949
 C         -5.1993263372       -1.1675303215       -1.1206174877
 H         -6.1711417480       -1.4315598924       -0.6988808243
 H         -4.7444876114       -2.0734397795       -1.5318512878
 H         -7.1507556639        2.4099864432        0.3861629431
 H         -5.5293168913        2.8175372816        0.9621454655
 H         -6.2215326612        0.8673434072        2.1552757299
 H         -6.7521757928        0.0436553428        0.6766188032
 O         -3.8002919078        0.5585894516        1.9203657695
 C         -2.4731124623        0.1684507084        1.9230223850
 O         -1.8035623750        0.6388892151        2.8657346556
 O         -2.5116589450       -1.9271661045       -1.0369381310
 C         -0.5465976247       -1.0674134530        1.0156358906
 C          0.2905052806       -0.1144609969        0.2027919324
 C          0.0342599327        0.0963186300       -1.1487630766
 C          0.8149909886        0.9697863861       -1.8834970985
 C          1.8675080543        1.6455102725       -1.2901501495
 C          2.1319998948        1.4404430710        0.0567825109
 C          1.3457266970        0.5642972737        0.7937833566
 H          1.5476394400        0.4200589598        1.8467358724
 N          3.2263042899        2.1027426059        0.6526773181
 S          4.7262621052        1.7250463846       -0.0014437303
 O          5.6931105178        2.0834529030        1.0108106919
 O          4.8644370600        2.3788336392       -1.2772389969
 C          4.6610886579       -0.0438561762       -0.2162189685
 C          4.8946826807       -0.8455008793        0.8836729095
 C          4.7459440809       -2.2170674329        0.7573350948
 C          4.3536968631       -2.7595179172       -0.4570533764
 C          4.1246303610       -1.9411582994       -1.5519029644
 C          4.2789253645       -0.5690754129       -1.4342376660
 H          4.1133973052        0.0999707981       -2.2623617057
 H          3.8194650185       -2.3665664829       -2.4942838119
 H          4.2214585857       -3.8255838405       -0.5491200062
 H          4.9264679261       -2.8571974299        1.6060629187
 H          5.1982394681       -0.3849274183        1.8104414420
 H          3.2560278315        1.9947753932        1.6568820102
 H          2.4929348617        2.3221556298       -1.8499637110
 H          0.6035660868        1.1258708281       -2.9305885156
 H         -0.7790452512       -0.4388255890       -1.6147228716
 H         -0.2846587584       -0.9166388093        2.0746025676
 C         -0.2741667747       -2.5296835928        0.6842515700
 C          0.5817264923       -2.9765033024       -0.4596929160
 C          1.0887179728       -3.1012078491        0.9430892085
 H          1.1635447130       -4.0820376265        1.3869585055
 H          1.8613859000       -2.4134125702        1.2536397760
 H          0.2793071795       -3.8685652556       -0.9861508202
 H          1.0260212862       -2.2252831706       -1.0933198818
 H         -1.1201556907       -3.1641082133        0.9252997254
