  62
        -98.93710515
 C         -1.1215424846       -1.4867012156       -0.0787284656
 C         -1.8643886774       -0.7897531951        0.9069946867
 C         -2.8098978903        0.2399092880        0.4397832438
 C         -2.9150505282        0.4810410725       -0.8798867599
 C         -3.7558905090        1.4735077898       -1.6571592015
 C         -4.8340825009        2.2950079425       -0.9564999976
 C         -6.0603550298        1.4899943873       -0.5234694678
 H         -6.6958355922        2.1319178536        0.0901220469
 H         -6.6274232312        1.2200313833       -1.4180500670
 C         -5.7691635172        0.1999125036        0.2394417241
 H         -6.7234071869       -0.2994967276        0.4279301116
 H         -5.1743424763       -0.4696481463       -0.3850580131
 C         -5.0670504578        0.3801488853        1.5830541402
 H         -5.0347701997       -0.5965463461        2.0734893669
 H         -5.6513347998        1.0517012968        2.2152794431
 C         -3.6267346411        0.9107090831        1.5069951150
 H         -3.6164095579        1.9908000366        1.3833974389
 H         -3.1338919212        0.6791794227        2.4557040431
 H         -4.4085426042        2.8348106737       -0.1156154640
 H         -5.1716589321        3.0470271204       -1.6748139443
 H         -3.0440465526        2.1609192008       -2.1281530417
 H         -4.2129647957        0.9065529917       -2.4748735449
 O         -2.1543937610       -0.1918235155       -1.7911286496
 C         -1.2495405437       -1.1805031290       -1.4319790179
 O         -0.6467736848       -1.6745464557       -2.4038392176
 H          1.3023048448       -1.1143005621       -1.3165328881
 C          1.8114956167       -1.2391540269       -0.3719294506
 C          1.2060764998       -1.9793939690        0.6345795667
 C          1.8760919945       -2.1292937379        1.8422719217
 C          3.1209601682       -1.5540186802        2.0350041274
 C          3.7172333565       -0.8109150264        1.0319327823
 C          3.0523260814       -0.6539320545       -0.1769737634
 N          3.6258958041        0.1537263500       -1.1869790158
 S          3.7483512446        1.7697499934       -0.7465795318
 O          3.7631415583        2.5194329455       -1.9820348091
 O          4.8974426180        1.9319893389        0.1072171514
 C          2.2552151477        2.0881297400        0.1771202222
 C          2.2938173935        2.0846822574        1.5566575153
 C          1.1098991287        2.2359932524        2.2600279888
 C         -0.0855542570        2.3880080928        1.5760842173
 C         -0.1065126735        2.3984422488        0.1902082854
 C          1.0723122166        2.2378636333       -0.5187498880
 H          1.0899376701        2.2350816096       -1.5976140823
 H         -1.0395449454        2.5158253325       -0.3375362507
 H         -1.0082811308        2.4930301543        2.1239545263
 H          1.1199044206        2.2267726426        3.3378186892
 H          3.2444531429        1.9668363834        2.0500066376
 H          3.1246915988        0.0851308070       -2.0625837372
 H          4.6747692994       -0.3349624722        1.1685540195
 H          3.6289221189       -1.6785644454        2.9788447680
 H          1.4069717491       -2.6858252849        2.6399769309
 C         -0.1680383836       -2.5590426724        0.4201693581
 H         -0.5616470549       -2.8460819468        1.4077299258
 C         -0.1611769151       -3.8101737868       -0.4470968896
 C          1.0003293982       -4.2290263633       -1.2928546548
 C          0.6718824311       -4.9919602680       -0.0468781619
 H          0.2482774622       -5.9805218821       -0.1382915678
 H          1.3318852946       -4.8688602568        0.7985935292
 H          0.7839312321       -4.6747276353       -2.2518840668
 H          1.8849373230       -3.6117539167       -1.2945016052
 H         -1.1451811619       -4.0250692190       -0.8518199245
 O         -1.7449373430       -1.0230092855        2.1380864538
