  62
        -98.94361454
 C         -1.8007478485        0.8685917601       -0.8189102136
 C         -2.0002311254        0.3988222753        0.5016669419
 C         -3.3967566777        0.3612065312        0.9599666428
 C         -4.3736802983        0.7833066549        0.1366037489
 C         -5.8396360420        0.7474301956        0.4563820870
 C         -6.4773148371       -0.5683973950       -0.0112103631
 C         -5.7068689074       -1.8161045503        0.4210116801
 H         -6.2649879418       -2.6832990518        0.0612215844
 H         -4.7364872070       -1.8282808151       -0.0807712770
 C         -5.4936496117       -1.9379007733        1.9363053615
 H         -5.7126591685       -2.9641672151        2.2386637906
 H         -6.1949900227       -1.2890243920        2.4621506774
 C         -4.0697570973       -1.6299843440        2.4035155639
 H         -3.3562236790       -2.2097555328        1.8123154766
 H         -3.9755476282       -1.9566441787        3.4425522689
 C         -3.6535929327       -0.1546672371        2.3478132105
 H         -4.4001201236        0.4583039080        2.8567373778
 H         -2.7041871724       -0.0575844917        2.8821601438
 H         -7.4965835653       -0.6153397311        0.3765218975
 H         -6.5293137826       -0.5593478544       -1.1024860970
 H         -5.9755777542        0.8680804812        1.5292705904
 H         -6.3246153488        1.5786246120       -0.0582545290
 O         -4.1384586000        1.2506897120       -1.1167138604
 C         -2.8526476319        1.2900916078       -1.6310286779
 O         -2.7782364985        1.7113764782       -2.8035994209
 H          2.0968638717        0.1701156366       -0.4880719057
 C          1.5104767608       -0.6595853975       -0.8433089641
 C          0.2339636598       -0.4483120250       -1.3379927759
 C         -0.4888959326       -1.5424055144       -1.8076485321
 C          0.0476805957       -2.8140044159       -1.7644887779
 C          1.3198010082       -3.0220873650       -1.2603307306
 C          2.0537373491       -1.9369780178       -0.7979247403
 N          3.3284857547       -2.1219706267       -0.2507324745
 S          4.5127232181       -0.9534464937       -0.3597856208
 O          4.5025072365       -0.2967779728       -1.6463984422
 O          5.7348974640       -1.6506976335       -0.0192157918
 C          4.1313819238        0.2143577709        0.9290690706
 C          4.3947188890        1.5523165253        0.7108994977
 C          4.1260653901        2.4631188282        1.7202954238
 C          3.6029283224        2.0214545735        2.9256258276
 C          3.3490213544        0.6739573311        3.1306029077
 C          3.6178188262       -0.2421162037        2.1263582877
 H          3.4234300114       -1.2940891875        2.2521134576
 H          2.9373619217        0.3345977254        4.0674718711
 H          3.3895885100        2.7319585494        3.7087274340
 H          4.3223666479        3.5119199635        1.5628203382
 H          4.7918082859        1.8522876455       -0.2461583384
 H          3.6965421099       -3.0598170269       -0.2988006505
 H          1.7383659498       -4.0162036132       -1.2209205225
 H         -0.5272388757       -3.6527257363       -2.1279450998
 H         -1.4831007754       -1.3801177527       -2.2026046708
 C         -0.3961581893        0.9220683071       -1.3917993031
 H         -0.5062677684        1.2052210584       -2.4491810211
 C          0.4115018316        1.9896908198       -0.6830955770
 C          1.5292889965        2.6895615141       -1.3938145288
 C          0.2511780504        3.4173928139       -1.1072338439
 H          0.2534152834        4.1845883702       -0.3478674023
 H         -0.4223043863        3.6171902536       -1.9282228340
 H          1.7356522713        2.3985381937       -2.4129392395
 H          2.4089115477        2.9571008656       -0.8283481023
 H          0.5239726308        1.7915995768        0.3769471995
 O         -1.0648819596        0.0295179158        1.2575067447
