  62
        -98.94497786
 C         -2.0548739343       -1.3391590177        0.0260333471
 C         -2.6378499123       -0.6686572991        1.1275792123
 C         -3.8157325241        0.1523572842        0.8278699301
 C         -4.2724085418        0.2275135931       -0.4357558413
 C         -5.4748945539        1.0059354743       -0.8964629276
 C         -5.1886314406        2.4875322034       -1.1772914342
 C         -4.9618359950        3.3528328924        0.0630443049
 H         -4.9879123285        4.3943419717       -0.2635227825
 H         -5.7875647845        3.2097242442        0.7607083950
 C         -3.6292609205        3.0944520862        0.7801979854
 H         -3.1506981490        4.0482412860        1.0148745848
 H         -2.9544775949        2.5559125915        0.1099600346
 C         -3.7562245197        2.3155466239        2.0897458906
 H         -4.3230810109        2.9060201189        2.8128543966
 H         -2.7530991546        2.1609913829        2.4958732457
 C         -4.4266099401        0.9427272514        1.9456963864
 H         -4.2693061659        0.3857494312        2.8725855033
 H         -5.4979019225        1.0626257404        1.7869291951
 H         -6.0473484505        2.8882061807       -1.7207926283
 H         -4.3183504131        2.5569750850       -1.8343244179
 H         -6.2721302237        0.9215821350       -0.1574722074
 H         -5.8098332656        0.5388422146       -1.8250648691
 O         -3.6817644881       -0.4297063365       -1.4683388323
 C         -2.5471038199       -1.2058666318       -1.2725755519
 O         -2.0899614202       -1.7144948376       -2.3126887177
 O         -2.1912511113       -0.7484633377        2.3041874159
 C         -0.8202245279       -2.1919420997        0.2583976768
 C          0.3561424068       -1.5893682846       -0.4701365213
 C          1.1791106744       -2.3028445558       -1.3303776862
 C          2.2301832650       -1.6738491962       -1.9768280930
 C          2.4902032301       -0.3319372381       -1.7726071989
 C          1.6861886226        0.3863485571       -0.8952353559
 C          0.6353948337       -0.2452975727       -0.2492288124
 H          0.0075907557        0.3164237033        0.4315441733
 N          1.9526612780        1.7458588499       -0.6631290755
 S          3.5450804084        2.2121734334       -0.4474142826
 O          3.4823443790        3.3989546301        0.3766266804
 O          4.1821595892        2.3717419936       -1.7309203720
 C          4.3127665088        0.8707589026        0.4443707648
 C          5.3783262536        0.1931100134       -0.1118787542
 C          5.9392398396       -0.8638350102        0.5871880770
 C          5.4245542279       -1.2251518227        1.8223266672
 C          4.3559020626       -0.5316532552        2.3699663015
 C          3.7927849705        0.5271033061        1.6766329116
 H          2.9638289335        1.0881609193        2.0780838306
 H          3.9564433368       -0.8130855324        3.3311500635
 H          5.8577711348       -2.0513757445        2.3635029754
 H          6.7716136638       -1.4032395019        0.1649427897
 H          5.7447873154        0.5053926512       -1.0761922500
 H          1.3463885342        2.1743555313        0.0201571865
 H          3.2917662751        0.1746415625       -2.2851211558
 H          2.8536385817       -2.2370426919       -2.6541018912
 H          0.9913152269       -3.3488261553       -1.5062152883
 H         -0.6212577483       -2.1232846406        1.3383070836
 C         -1.0872970271       -3.6387233738       -0.0954097765
 C         -0.3094118178       -4.7313831108        0.5733082776
 C         -1.7521780463       -4.5200726367        0.9177876159
 H         -2.4782262937       -5.2419689028        0.5751388411
 H         -1.9928350945       -4.0821325457        1.8756251178
 H         -0.0446059661       -5.6038028633       -0.0045539403
 H          0.4324321053       -4.4422066634        1.3019855865
 H         -1.3709477188       -3.7696912395       -1.1333465694
