  62
        -98.94401797
 C          2.2060749747        1.2503238526       -0.1693837577
 C          2.6167396352        0.1494169550       -0.9587042299
 C          3.9976441542       -0.3086881261       -0.7455805273
 C          4.7776724754        0.3336424948        0.1428091366
 C          6.1801745956       -0.0642018947        0.4988246747
 C          6.1953633961       -1.0320072772        1.6904549191
 C          5.2244000340       -2.2041628701        1.5470851137
 H          5.3437144133       -2.8352986046        2.4304426572
 H          4.2000595607       -1.8244030247        1.5603048163
 C          5.4327752197       -3.0499346363        0.2830914484
 H          6.4258132573       -2.8640432950       -0.1278558064
 H          5.3880388782       -4.1061032510        0.5571567489
 C          4.3836435784       -2.8288710320       -0.8082899597
 H          3.3821798027       -2.9235356454       -0.3800898629
 H          4.4961229350       -3.6213052370       -1.5531885450
 C          4.4650893900       -1.4886781908       -1.5500391327
 H          5.4822762986       -1.3304560477       -1.9142031476
 H          3.7954351540       -1.5467969026       -2.4132289716
 H          7.2111302165       -1.4119510304        1.8138673610
 H          5.9287792200       -0.4754063378        2.5918621789
 H          6.6520617236       -0.5275308829       -0.3653481347
 H          6.7361169603        0.8359646775        0.7663126675
 O          4.3538317838        1.4021023988        0.8649776970
 C          3.0582905328        1.8754870076        0.7412981711
 O          2.7892827805        2.8419524913        1.4827960873
 O          1.8744530726       -0.4222015172       -1.7994906249
 C          0.7890184726        1.7859399266       -0.2858357320
 C         -0.1831046283        0.6908592261        0.0794126092
 C         -0.1089236850        0.1376739208        1.3556590183
 C         -0.9582929424       -0.8830977159        1.7359241795
 C         -1.9023807326       -1.3764132390        0.8517613259
 C         -1.9900576684       -0.8266314222       -0.4194867393
 C         -1.1426945121        0.2092481967       -0.7955674196
 H         -1.2218163287        0.6195492981       -1.7896994043
 N         -2.9484938780       -1.3175625838       -1.3195917238
 S         -4.4967597469       -1.6055413354       -0.7608637880
 O         -4.5416460589       -2.8670679778       -0.0644546988
 O         -5.3448121528       -1.4975639597       -1.9270046887
 C         -4.8300201921       -0.2738361735        0.3794365067
 C         -5.0718175021       -0.5482914883        1.7097733586
 C         -5.2969051429        0.5051615947        2.5816914350
 C         -5.2725436717        1.8083961755        2.1106582143
 C         -5.0311951998        2.0679902186        0.7700156389
 C         -4.8067592244        1.0188646835       -0.1060245617
 H         -4.6233779548        1.1869649558       -1.1549752316
 H         -5.0144559718        3.0827744652        0.4060569714
 H         -5.4434455638        2.6275919052        2.7911734010
 H         -5.4867747035        0.3061965333        3.6241469907
 H         -5.0806330150       -1.5759762181        2.0346510981
 H         -2.9504769822       -0.8576655883       -2.2175258512
 H         -2.5593379143       -2.1865685432        1.1233530740
 H         -0.8834222010       -1.3042679237        2.7270585835
 H          0.6343070633        0.5183370297        2.0434622419
 H          0.7043965503        2.5811126313        0.4681398854
 C          0.5592305919        2.3881854529       -1.6555446709
 C         -0.5118498565        3.4184641840       -1.8481672835
 C          0.9313981143        3.8203739290       -1.8878395694
 H          1.3672522079        4.0916425308       -2.8377577292
 H          1.3357348184        4.3704048532       -1.0505404523
 H         -1.0678211206        3.4206383753       -2.7736857370
 H         -1.0911518773        3.7020418500       -0.9827522516
 H          0.7514896282        1.6885280101       -2.4607128704
