  62
        -98.93574759
 C         -2.3089323160       -1.0200062269        0.1224547974
 C         -3.5590439606       -0.9511153375        0.7871591402
 C         -4.5806549288       -0.0456319898        0.2271144645
 C         -4.2646770730        0.6906367883       -0.8538755776
 C         -5.1124821897        1.7032994390       -1.5773297041
 C         -5.2266743105        3.0342290262       -0.8179280519
 C         -5.5019595342        2.8984010828        0.6771377627
 H         -4.7006353282        2.3171734334        1.1369226238
 H         -5.4656925292        3.9004569639        1.1126486031
 C         -6.8509531202        2.2803529251        1.0373547849
 H         -7.6492537720        2.8772040378        0.5908375251
 H         -6.9562191827        2.3450206859        2.1233218504
 C         -7.0482017521        0.8183840195        0.6295469887
 H         -7.2840849264        0.7320487845       -0.4278055194
 H         -7.9206632655        0.4441900112        1.1730298479
 C         -5.8854768573       -0.1026522730        0.9846663771
 H         -5.6293226525        0.0320735687        2.0416786376
 H         -6.2263040408       -1.1419086226        0.9030631470
 H         -6.0141843707        3.6294109603       -1.2835060041
 H         -4.2826417281        3.5722744249       -0.9357193699
 H         -6.0956321586        1.2899521598       -1.7823296954
 H         -4.6239500486        1.8915799047       -2.5361053056
 O         -3.0353710823        0.6239394275       -1.4385282634
 C         -2.0323147379       -0.2186467763       -0.9860075772
 O         -0.9842328802       -0.1500168143       -1.6561208258
 O         -3.8212293547       -1.6231553122        1.8205998238
 C         -1.2667028171       -1.9596648693        0.7044226554
 C          0.0383243349       -1.2318376875        0.8953318201
 C          0.2022457911       -0.3968162964        1.9965574821
 C          1.3746333944        0.3130434872        2.1743711541
 C          2.4035339824        0.2133697658        1.2537857933
 C          2.2398486758       -0.5986751119        0.1401191829
 C          1.0707091361       -1.3308288493       -0.0228453892
 H          0.9485032934       -1.9500498890       -0.8977402810
 N          3.2702293059       -0.7066196789       -0.8066221777
 S          4.1471900493        0.6531046714       -1.2429075988
 O          3.3748279437        1.8684526726       -1.1316822552
 O          4.6817590900        0.3472904876       -2.5523877020
 C          5.4881249618        0.6720736004       -0.0683583254
 C          6.2221916947       -0.4853792977        0.1030381141
 C          7.2756822576       -0.4832199253        1.0030600249
 C          7.5789471745        0.6705094869        1.7105698238
 C          6.8356844189        1.8257643255        1.5244618371
 C          5.7796548099        1.8295608341        0.6262298308
 H          5.1712249409        2.7032098424        0.4529768387
 H          7.0728962225        2.7223821051        2.0743003808
 H          8.3991828643        0.6693997549        2.4109504969
 H          7.8559175171       -1.3798726715        1.1502661040
 H          5.9567319841       -1.3595896911       -0.4673724584
 H          3.0136857957       -1.2460333839       -1.6207260603
 H          3.3139958876        0.7762573279        1.3783516994
 H          1.4900845973        0.9536008563        3.0355718157
 H         -0.6069026195       -0.3044366282        2.7079626899
 H         -1.6627624275       -2.2168701577        1.7000560952
 C         -1.1059383501       -3.2729095324       -0.0474448409
 C         -2.3033529465       -3.9792664577       -0.6071927885
 C         -1.2755672995       -3.4003231915       -1.5304822363
 H         -0.6239268640       -4.0803634373       -2.0602814765
 H         -1.5252494168       -2.5136384798       -2.0919791174
 H         -2.3638302494       -5.0525552447       -0.5091178994
 H         -3.2565683341       -3.4771551975       -0.5276852855
 H         -0.3441205943       -3.9000716114        0.4060048321
