  62
        -98.94044001
 C         -2.1483844152       -1.1106926322        0.1900978675
 C         -1.6541753685       -0.1814716213       -0.7551676090
 C         -2.2152630456        1.1816774741       -0.6834134800
 C         -3.1517203759        1.4563163092        0.2414890085
 C         -3.8278833000        2.7734467867        0.5085739419
 C         -3.0840363368        3.5610615905        1.6004130330
 C         -1.9449832617        4.4456429341        1.0949893371
 H         -2.3652510775        5.2962412440        0.5544188458
 H         -1.4259355873        4.8395024688        1.9720057215
 C         -0.9253421191        3.7473542605        0.1913024754
 H         -0.0100272923        4.3413653772        0.2020631452
 H         -0.6760363404        2.7676355429        0.6035680889
 C         -1.4096453710        3.5943692546       -1.2579649614
 H         -2.3054644284        4.1977450236       -1.4011925714
 H         -0.6552716951        3.9939484441       -1.9375695801
 C         -1.6791938548        2.1512525592       -1.7012645319
 H         -0.7448254508        1.6969818519       -2.0469017167
 H         -2.3582638346        2.1626844549       -2.5603810748
 H         -3.8007942593        4.1983864898        2.1223597803
 H         -2.6982660890        2.8423797018        2.3284730839
 H         -4.8292907697        2.5365887654        0.8744271757
 H         -3.9190486899        3.3545083287       -0.4039377561
 O         -3.5935396947        0.5289113280        1.1377598269
 C         -3.1055241282       -0.7643021486        1.1417448719
 O         -3.5883103050       -1.4980795523        2.0291866983
 O         -0.7801512503       -0.4685289719       -1.6129557108
 C         -1.6460878427       -2.5412918750        0.1802946792
 C         -0.1388826313       -2.5990728242        0.2417289083
 C          0.5930116526       -3.5867852763       -0.4060278793
 C          1.9741855050       -3.6120883655       -0.3171142800
 C          2.6567807924       -2.6530511120        0.4079079309
 C          1.9352792024       -1.6563288607        1.0540330358
 C          0.5505358833       -1.6488351813        0.9836933509
 H         -0.0059599112       -0.8770020190        1.5017395191
 N          2.6137571739       -0.6643562491        1.7891734880
 S          3.8037971323        0.2428268599        1.0386873073
 O          4.8892038242       -0.6293102142        0.6663690326
 O          4.1222241866        1.2910530669        1.9815870401
 C          3.0692683891        0.9519035048       -0.4241082912
 C          2.7199823411        2.2873987064       -0.4077928357
 C          2.1543166185        2.8463248715       -1.5415045725
 C          1.9261737637        2.0582712781       -2.6588567893
 C          2.2725863663        0.7163711204       -2.6557116829
 C          2.8580353195        0.1558477610       -1.5324174704
 H          3.1505585981       -0.8806511920       -1.5058804223
 H          2.0842046187        0.1018557351       -3.5208452476
 H          1.4774452199        2.4912922054       -3.5394232369
 H          1.8932034341        3.8923359518       -1.5494934830
 H          2.9110952775        2.8622855630        0.4842332957
 H          1.9930589070       -0.0462815351        2.2916927764
 H          3.7329687823       -2.6486001706        0.4711810658
 H          2.5281991227       -4.3881886006       -0.8231766692
 H          0.0807242304       -4.3384155369       -0.9839291692
 H         -2.0445446569       -3.0117079410        1.0919643232
 C         -2.2120858324       -3.2667333593       -1.0260226724
 C         -2.5765049999       -4.7179868060       -0.9453092294
 C         -3.6528189993       -3.6775424514       -1.0081336817
 H         -4.2293413372       -3.5815265474       -1.9159427851
 H         -4.2150979947       -3.4651044511       -0.1101030252
 H         -2.4172353376       -5.3392957090       -1.8139248069
 H         -2.4193615478       -5.2239176340       -0.0045407612
 H         -1.8113590161       -2.8891235104       -1.9599420730
