  62
        -98.93011111
 C         -2.4291045607       -1.2344417409       -0.1969921871
 C         -2.3974798302        0.0611708721        0.3718490041
 C         -3.7051924581        0.6501792565        0.7220458277
 C         -4.8274519991       -0.0663696936        0.5447987837
 C         -6.2501600060        0.3128048653        0.8727005761
 C         -6.7047230730        1.7355798989        0.5202878357
 C         -6.0574648571        2.3304452738       -0.7387215432
 H         -5.5281331585        1.5525518037       -1.2917727235
 H         -6.8415132666        2.7176966473       -1.3920169810
 C         -5.0951463747        3.4797301891       -0.4292277015
 H         -4.9625362232        4.0800087389       -1.3325712810
 H         -5.5496135264        4.1231890683        0.3272066191
 C         -3.7028371236        3.0616163697        0.0425937398
 H         -3.1494159032        2.6130995219       -0.7876023277
 H         -3.1601986046        3.9644411475        0.3337577215
 C         -3.6705947386        2.0679134643        1.2157023750
 H         -2.7118556926        2.1843232465        1.7287815797
 H         -4.4707375299        2.2683338993        1.9240697242
 H         -6.5147510480        2.3986439453        1.3630654140
 H         -7.7873512668        1.6965289340        0.3889714094
 H         -6.8665335892       -0.4119596443        0.3354351483
 H         -6.4091500702        0.1408010710        1.9411893276
 O         -4.8050470412       -1.3355922281        0.0466401619
 C         -3.6237360440       -1.9438232005       -0.3375799079
 O         -3.7641912504       -3.1043361030       -0.7719812738
 H          1.3943683692       -0.8986733657       -0.8535453475
 C          1.1615449774       -1.2624913946        0.1321042653
 C         -0.0848399804       -1.8007826317        0.4100820960
 C         -0.3495993592       -2.2413476915        1.7044992426
 C          0.6010568687       -2.1210998685        2.6984200512
 C          1.8391655643       -1.5695922085        2.4206754485
 C          2.1211765656       -1.1435147857        1.1279425323
 N          3.3990058752       -0.6422751551        0.8227985126
 S          3.6595060443        0.4877180382       -0.3989006899
 O          2.9572032794        1.7213444678       -0.1239430237
 O          3.4049999487       -0.1276995095       -1.6767248023
 C          5.4157088743        0.7244570487       -0.1906273435
 C          5.8795476113        1.8107628580        0.5265486590
 C          7.2456081512        1.9619139090        0.7072299123
 C          8.1200565373        1.0280224073        0.1724601263
 C          7.6399696673       -0.0563789866       -0.5469761754
 C          6.2755865811       -0.2124833480       -0.7317024103
 H          5.8569126772       -1.0336164410       -1.2896526154
 H          8.3230213976       -0.7787157011       -0.9640449145
 H          9.1824765877        1.1475399972        0.3149565119
 H          7.6218048741        2.8055784444        1.2631773687
 H          5.1633748776        2.5163684082        0.9163774618
 H          3.9187824151       -0.3856235286        1.6512994629
 H          2.5809162659       -1.4702159713        3.1986749421
 H          0.3764080636       -2.4545383518        3.7006355968
 H         -1.3213161927       -2.6650792389        1.9221547537
 C         -1.1636404583       -1.9502419317       -0.6350608890
 H         -1.4416224268       -3.0172294095       -0.6756905546
 C         -0.6963308168       -1.5710159015       -2.0327602606
 C         -1.6532430257       -1.0596442788       -3.0667122762
 C         -0.6181622324       -0.1454956191       -2.4867392073
 H          0.2202418842        0.1498605769       -3.1017355189
 H         -0.9288187794        0.6170048563       -1.7896725314
 H         -1.5329692433       -1.3951639281       -4.0857861443
 H         -2.6831366080       -0.9193077173       -2.7712615478
 H          0.0850718034       -2.2339304656       -2.3929758025
 O         -1.3396297665        0.7056688650        0.5947486439
