  62
        -98.94084445
 C          2.6509803997        1.2870477414        0.2324503607
 C          2.3246428003        0.2828591715       -0.7158097797
 C          3.2596585407       -0.8495938881       -0.7943234799
 C          4.3669338306       -0.8683548679       -0.0329043297
 C          5.4108825810       -1.9509428775       -0.0080977199
 C          5.0534200513       -3.1317355979        0.9053317897
 C          3.9468029018       -4.0492975382        0.3829847892
 H          4.1836433121       -4.3605230778       -0.6348832708
 H          3.9527214920       -4.9450108184        1.0071616589
 C          2.5398502915       -3.4349592687        0.4193569392
 H          2.5333734511       -2.5707621690        1.0879779594
 H          1.8340912118       -4.1598625992        0.8311781988
 C          1.9992212016       -3.0066957085       -0.9452365008
 H          1.0138562914       -2.5537581290       -0.7993248308
 H          1.8702422821       -3.8860183784       -1.5808134111
 C          2.8862503013       -1.9961073380       -1.6844404003
 H          3.7794568516       -2.4890912575       -2.0680245503
 H          2.3169895913       -1.5951790379       -2.5269603403
 H          4.7693797710       -2.7412930183        1.8852284498
 H          5.9587708216       -3.7290676076        1.0346942897
 H          6.3281082308       -1.4914058472        0.3661878204
 H          5.5903431213       -2.3128842671       -1.0206756600
 O          4.6745799801        0.1403963720        0.8245506507
 C          3.8099272196        1.2055832816        1.0122819108
 O          4.1840499891        2.0122259414        1.8867442112
 O          1.3202157804        0.3088706414       -1.4729317499
 C          1.7220615692        2.4500546509        0.5507225109
 C          0.3574601894        1.8816828003        0.8470916805
 C          0.0994404694        1.3449382798        2.1045301003
 C         -1.1075836304        0.7269586992        2.3731246399
 C         -2.0700553102        0.6106873191        1.3854415097
 C         -1.8131821702        1.1272239796        0.1229793799
 C         -0.6181512604        1.7867551102       -0.1320880197
 H         -0.4243250504        2.1798304006       -1.1178844896
 N         -2.7731401400        0.9767432996       -0.8939939903
 S         -3.4073950793       -0.5620085906       -1.1324245809
 O         -2.4989253990       -1.6013796004       -0.7090974511
 O         -3.8233081791       -0.5903073703       -2.5184510510
 C         -4.8621219895       -0.5732388615       -0.1020267812
 C         -5.7854219799        0.4412327482       -0.2635104410
 C         -6.9260541900        0.4401008175        0.5232615588
 C         -7.1256171498       -0.5716558529        1.4507916285
 C         -6.1916971594       -1.5855259626        1.5982938583
 C         -5.0478755593       -1.5891487019        0.8149808185
 H         -4.2913140090       -2.3533542616        0.8986985884
 H         -6.3483180292       -2.3720389029        2.3190384580
 H         -8.0141139599       -0.5704262434        2.0622239483
 H         -7.6547224003        1.2267554572        0.4114013889
 H         -5.5942216601        1.2059284985       -0.9975277607
 H         -2.4730712700        1.3648279400       -1.7774442802
 H         -3.0030494400        0.1063304687        1.5776950594
 H         -1.2970612404        0.3203086188        3.3549903997
 H          0.8660425292        1.4048662198        2.8652774004
 H          2.1219892489        2.8832333808        1.4808855211
 C          1.6985608789        3.5744383312       -0.4726287788
 C          2.9828134988        4.0801474019       -1.0583181884
 C          1.9851834892        3.3812121218       -1.9296504388
 H          1.4236492191        3.9731203318       -2.6383190787
 H          2.2094986397        2.3860398720       -2.2781302491
 H          3.1161478384        5.1449848120       -1.1748070580
 H          3.8866399690        3.5509808022       -0.7923001684
 H          0.9535278686        4.3239083108       -0.2220996587
