  62
        -98.94592141
 C          1.2914119003        1.4233356891        0.6186024536
 C          2.3645013667        1.3150351705       -0.3004237121
 C          3.3664725259        0.2794631267        0.0005292610
 C          3.2211024026       -0.4904789140        1.0930610869
 C          4.1467695730       -1.6032667681        1.4910757708
 C          3.7116099699       -2.9497896054        0.8953377128
 C          3.3966438013       -2.8937669740       -0.5993239562
 H          3.1265220503       -3.9049086852       -0.9109732279
 H          2.5224831167       -2.2586976961       -0.7591537609
 C          4.5532187972       -2.3871868359       -1.4719439442
 H          4.6418775869       -3.0347404987       -2.3467127313
 H          5.4923338862       -2.4570965729       -0.9216715629
 C          4.3760701965       -0.9593694582       -1.9910781066
 H          3.3944685353       -0.8580565674       -2.4605094962
 H          5.1286670169       -0.7833174882       -2.7642293383
 C          4.5275045300        0.1524788123       -0.9455145992
 H          5.4597264670        0.0144419591       -0.3938489796
 H          4.5829475408        1.1053247515       -1.4798149730
 H          2.8193787499       -3.2930374888        1.4242250630
 H          4.5066713028       -3.6760328840        1.0742619831
 H          4.1420013819       -1.6790695305        2.5799744322
 H          5.1549209326       -1.3597481520        1.1606216917
 O          2.1783783959       -0.3578799171        1.9533895646
 C          1.1985443347        0.5969702120        1.7416768600
 O          0.3087701424        0.6134300006        2.6170873093
 O          2.5059230973        2.0397950898       -1.3188600987
 C          0.1677071239        2.4360095065        0.4507868533
 C         -0.7990776233        1.9550068566       -0.6053956409
 C         -0.5306752536        2.0765066844       -1.9648896698
 C         -1.4338729200        1.6046732503       -2.8996606448
 C         -2.6105117595        0.9941121429       -2.5026698054
 C         -2.8860398547        0.8628650927       -1.1468805286
 C         -1.9849286655        1.3504561977       -0.2104356976
 H         -2.2156505225        1.2513257499        0.8397382894
 N         -4.0755775043        0.2537978179       -0.7137051002
 S         -4.0351258832       -0.8227418951        0.5668417845
 O         -5.2573710935       -1.5850848322        0.4272666022
 O         -3.8735662594       -0.1117120751        1.8082539053
 C         -2.6314679088       -1.8698432413        0.2328212397
 C         -2.7641775090       -2.8190115672       -0.7631395118
 C         -1.6771699365       -3.6143188111       -1.0840044712
 C         -0.4766302244       -3.4449565261       -0.4101126858
 C         -0.3621574244       -2.4910008521        0.5878692202
 C         -1.4467501146       -1.6922470366        0.9159271518
 H         -1.3732178843       -0.9431060021        1.6890148305
 H          0.5662950565       -2.3508251779        1.1190925332
 H          0.3735743457       -4.0600538203       -0.6596270483
 H         -1.7655211275       -4.3610361314       -1.8564993554
 H         -3.7178411414       -2.9291906926       -1.2535671086
 H         -4.6582629432       -0.0964005361       -1.4605730958
 H         -3.3130748337        0.6245932093       -3.2339439908
 H         -1.2156510670        1.7071025505       -3.9518066061
 H          0.3994618163        2.5202408734       -2.2812240717
 H         -0.3690291377        2.4434039549        1.4094251157
 C          0.6705827580        3.8393333681        0.1761725789
 C         -0.2605671036        4.9936118950        0.3868056206
 C          0.8878033459        4.7753168012        1.3248418020
 H          1.7253465207        5.4555727036        1.2842988522
 H          0.6725977286        4.4081546005        2.3183240116
 H         -0.2140156691        5.8259510712       -0.2984283654
 H         -1.2555099224        4.7731379943        0.7445092012
 H          1.3699715740        3.8985312753       -0.6466545065
