  62
        -98.94628201
 C          1.5375334557        1.4690639466       -0.0752597202
 C          1.5049378258        0.1059888254        0.3078126586
 C          2.7958120312       -0.4714613198        0.7033624699
 C          3.8978814086        0.2996722736        0.7190301684
 C          5.2799950751       -0.1425949616        1.1175124662
 C          6.0658387984       -0.8262689217       -0.0099919068
 C          5.5943597979       -2.2355185831       -0.3714672260
 H          6.3623458535       -2.6748250394       -1.0113837662
 H          5.5394900339       -2.8418033697        0.5331601705
 C          4.2493932698       -2.2836440838       -1.1101033566
 H          4.3286946032       -2.9590518175       -1.9650439076
 H          4.0170142372       -1.2924885107       -1.5064452897
 C          3.0739813284       -2.7639773863       -0.2584989150
 H          2.1678825514       -2.7105777692       -0.8665308044
 H          3.2324583190       -3.8061268559        0.0273867596
 C          2.8368125059       -1.9374742943        1.0118333620
 H          1.8633589383       -2.2125074296        1.4250443224
 H          3.6080532276       -2.1515724067        1.7512294779
 H          7.1086877694       -0.8861273155        0.3102804542
 H          6.0278786883       -0.1902905302       -0.8975406066
 H          5.8211022298        0.7576328695        1.4169197629
 H          5.2173464706       -0.8115709976        1.9762873273
 O          3.8764707980        1.6181923186        0.3831276044
 C          2.7053455418        2.2287111026       -0.0397081926
 O          2.8312861557        3.4341196178       -0.3389356969
 H         -2.2989301620        1.1007886639       -0.7954328068
 C         -2.0488915132        1.3939335915        0.2094081161
 C         -0.8161387808        1.9555637607        0.4980434394
 C         -0.5545510307        2.3545906419        1.8068544387
 C         -1.4956271078        2.1747981283        2.8012286093
 C         -2.7125763259        1.5794837933        2.5164820550
 C         -2.9872983395        1.1889656909        1.2120677172
 N         -4.2142234745        0.5959929069        0.8880567539
 S         -4.3351426771       -0.5204497572       -0.3464945804
 O         -4.3128085909        0.1498183029       -1.6234431402
 O         -5.5550071208       -1.2412362316       -0.0443928328
 C         -2.9437757592       -1.6265918049       -0.2047833892
 C         -2.7062754562       -2.2423145246        1.0068278637
 C         -1.6530157529       -3.1349035975        1.1081117762
 C         -0.8629100301       -3.4005583711        0.0017178068
 C         -1.1164953957       -2.7767166257       -1.2080782141
 C         -2.1652855312       -1.8792502905       -1.3142682768
 H         -2.3908030865       -1.3650659158       -2.2357356575
 H         -0.4948967174       -2.9779263696       -2.0667662176
 H         -0.0384711228       -4.0915638303        0.0845461693
 H         -1.4463845006       -3.6160022279        2.0509938339
 H         -3.3399500519       -2.0210517021        1.8506733745
 H         -4.8030882746        0.3613831994        1.6728534528
 H         -3.4431654226        1.4226437213        3.2952090270
 H         -1.2771284383        2.4882359665        3.8111018365
 H          0.4046743837        2.8009021903        2.0333281416
 C          0.2580890551        2.1374162676       -0.5454511761
 H          0.4811670911        3.2102643490       -0.6362171701
 C         -0.1303512306        1.5985275908       -1.9065501215
 C         -0.9678226172        2.4234109442       -2.8354126683
 C          0.4825698788        2.1945656622       -3.1362157314
 H          0.7441081494        1.5385257662       -3.9529586095
 H          1.1703572308        3.0165540320       -2.9994573564
 H         -1.7100866725        1.9258107648       -3.4418791739
 H         -1.2668135475        3.4047828605       -2.4989934383
 H         -0.2866009101        0.5252458902       -1.8972160311
 O          0.4592151400       -0.5899975486        0.3212307058
