  62
        -98.93800437
 C         -1.6047586196       -1.6169751081        0.2696483644
 C         -1.7763054446       -0.4527529985        1.0584042752
 C         -2.8671494282        0.4673435789        0.6856572929
 C         -3.6243819322        0.1657428306       -0.3857202481
 C         -4.7901761590        0.9286984130       -0.9592752464
 C         -4.3622890605        2.1758618051       -1.7462539939
 C         -3.3133077055        3.0337018138       -1.0456867074
 H         -2.4294931798        2.4227701651       -0.8584758269
 H         -3.0239746352        3.8331736312       -1.7328784596
 C         -3.7722576996        3.6779205042        0.2605724175
 H         -2.9897073253        4.3724651832        0.5766713751
 H         -4.6741398449        4.2648857276        0.0739197903
 C         -4.0453923454        2.7165139966        1.4208509694
 H         -5.0247487920        2.2540181169        1.3287607121
 H         -4.0712793396        3.3125474346        2.3376247261
 C         -2.9815467937        1.6424902305        1.6265271808
 H         -1.9903505161        2.1091575967        1.6539337735
 H         -3.1184208841        1.2044199753        2.6223497602
 H         -3.9456959161        1.8481508809       -2.7019378187
 H         -5.2511963013        2.7740302302       -1.9542111387
 H         -5.3032841842        0.2462726800       -1.6405974675
 H         -5.4874173795        1.1934032260       -0.1698426868
 O         -3.3852168447       -0.9363914063       -1.1504493738
 C         -2.3789925996       -1.8425259010       -0.8680980363
 O         -2.2983850443       -2.7727953251       -1.6931817957
 O         -1.0498885121       -0.1924808759        2.0557108277
 C         -0.5061178750       -2.5761411273        0.6977541601
 C          0.7584186152       -2.2486560178       -0.0574989066
 C          0.9238494244       -2.5852097451       -1.3965474157
 C          2.0806985269       -2.2315675404       -2.0681430784
 C          3.0914423052       -1.5376417691       -1.4246647819
 C          2.9272298800       -1.1834877774       -0.0921786529
 C          1.7681634969       -1.5429708121        0.5818728437
 H          1.6357934640       -1.2521625118        1.6153085065
 N          3.9455658705       -0.4645637744        0.5701679560
 S          4.3081406608        1.0637736834       -0.0079575043
 O          4.7956259180        0.9499800290       -1.3583263011
 O          5.2172204548        1.6357108319        0.9579971660
 C          2.7614724028        1.9513975295        0.0124255244
 C          1.8647494514        1.7590477667       -1.0195721868
 C          0.6467442188        2.4175275413       -0.9764424731
 C          0.3490879589        3.2524072426        0.0892671041
 C          1.2573715853        3.4292958308        1.1210600384
 C          2.4743086364        2.7686092367        1.0872392054
 H          3.2118128318        2.8814933220        1.8656982028
 H          1.0191421980        4.0758004297        1.9504471145
 H         -0.5970058201        3.7698921972        0.1121789850
 H         -0.0651908960        2.2752212534       -1.7744829311
 H          2.1316777649        1.1095285705       -1.8374830347
 H          3.8019979720       -0.4099901041        1.5692379126
 H          3.9920859828       -1.2455430662       -1.9400086377
 H          2.1984631573       -2.5000642235       -3.1072637907
 H          0.1289048838       -3.1022761164       -1.9112746617
 H         -0.3256162103       -2.3488876531        1.7572319414
 C         -0.8838990211       -4.0378096256        0.5815986776
 C         -0.0844869851       -5.0511550127        1.3427873614
 C         -1.4874092704       -4.7334363304        1.7631680333
 H         -2.2591977373       -5.4678318912        1.5882643248
 H         -1.6313506435       -4.1572051631        2.6656644773
 H          0.1107212973       -6.0060997729        0.8798322642
 H          0.7239955413       -4.6891164192        1.9600580412
 H         -1.2526227886       -4.3184968852       -0.3954802519
