  62
        -98.94351503
 C         -0.8693154397       -1.6800492404       -0.3103115296
 C         -1.1816935798       -0.3331827305       -0.6233781798
 C         -2.3128163199        0.2444807795        0.1185825202
 C         -2.9072805897       -0.4556346204        1.0990967203
 C         -4.0300940498        0.0245005396        1.9786731803
 C         -5.4258306598       -0.1387289206        1.3611888403
 C         -5.7507330399        0.8297895492        0.2233555802
 H         -5.5515258300        1.8506272192        0.5507084300
 H         -6.8229610999        0.7514394590        0.0329343902
 C         -4.9942794399        0.5477045090       -1.0821242098
 H         -5.6906342400        0.5915585488       -1.9225167898
 H         -4.5883076298       -0.4660845509       -1.0543792796
 C         -3.8594051401        1.5272449791       -1.3810253100
 H         -4.2715320102        2.5264449690       -1.5371201401
 H         -3.3719771701        1.2139821990       -2.3074559000
 C         -2.7864544800        1.6075327194       -0.2866452300
 H         -3.1679316801        2.1502585395        0.5784761899
 H         -1.9247906501        2.1448134294       -0.6886125702
 H         -6.1547893697        0.0141889294        2.1604805803
 H         -5.5317265597       -1.1668962107        1.0073708005
 H         -3.9839397497       -0.5727546102        2.8921811004
 H         -3.8649560099        1.0699076697        2.2422704001
 O         -2.5238146996       -1.7189027703        1.4277096105
 C         -1.5219776095       -2.3609384903        0.7198162606
 O         -1.3045376894       -3.5324551002        1.0951307007
 H          1.3124589302       -0.1558818801       -0.1260327799
 C          1.9292366503       -1.0013474800        0.1302249902
 C          1.5359259604       -2.2758156701       -0.2516692796
 C          2.3458871706       -3.3539901299        0.0838354506
 C          3.5163831606       -3.1561491097        0.7955888805
 C          3.8899511104       -1.8870907196        1.2005152403
 C          3.0847135503       -0.8031546497        0.8690951901
 N          3.4259385302        0.5027983304        1.2477285499
 S          2.2205856700        1.6080549703        1.6068096998
 O          2.8819694900        2.6012662805        2.4308345796
 O          1.0691736501        0.9728070403        2.2083121299
 C          1.7897751399        2.3716659800        0.0579555597
 C          2.6039212399        2.2415264199       -1.0478376004
 C          2.2464283598        2.8896576597       -2.2191598204
 C          1.0970100997        3.6616631295       -2.2619929205
 C          0.2950858297        3.7897137496       -1.1394971005
 C          0.6416898898        3.1367400199        0.0318640196
 H          0.0366447398        3.1923824099        0.9238118996
 H         -0.6014267104        4.3887696795       -1.1740627306
 H          0.8193937796        4.1617598593       -3.1764699706
 H          2.8647291597        2.7853343296       -3.0963213305
 H          3.4890128499        1.6298097300       -0.9876636403
 H          4.2182239102        0.5867073106        1.8673051899
 H          4.7918254704       -1.7349450694        1.7735647702
 H          4.1370842907       -4.0009453296        1.0529398606
 H          2.0429140807       -4.3519359300       -0.1973706593
 C          0.2396194304       -2.4634054904       -0.9965269495
 H         -0.0465103995       -3.5232757004       -0.8985937393
 C          0.3593730003       -2.1600659006       -2.4833888496
 C          1.4665194702       -1.3448834406       -3.0731057397
 C          1.4288305004       -2.8245395006       -3.2994936195
 H          1.1741840804       -3.1947072308       -4.2810217894
 H          2.1516581705       -3.4287537204       -2.7722638294
 H          2.2147211802       -0.9472068304       -2.4060813398
 H          1.2168313201       -0.6834980907       -3.8879998398
 H         -0.6147811697       -2.0554587108       -2.9500339095
 O         -0.5692803799        0.3674698895       -1.4678789599
