  62
        -98.93871978
 C          2.7358543454        0.7364196211       -0.1459821751
 C          2.3552239577       -0.2015387554       -1.1394341570
 C          2.6605815663       -1.6119522521       -0.8350113208
 C          3.2916901593       -1.9284522372        0.3083657720
 C          3.6155704184       -3.3226179230        0.7599823893
 C          2.4911504047       -3.9014775775        1.6292101607
 C          1.0970603563       -3.7587054223        1.0175015780
 H          0.3934193223       -4.2452885129        1.6966675666
 H          0.8206433091       -2.7020376273        0.9763478847
 C          0.9537313815       -4.3639834707       -0.3855288805
 H          1.7668452371       -5.0669477972       -0.5733869898
 H          0.0187710460       -4.9262048892       -0.4295345769
 C          0.9014540709       -3.3309668694       -1.5131636328
 H          0.1611548200       -2.5637194675       -1.2696225051
 H          0.5623544242       -3.8353114726       -2.4227609609
 C          2.2306393325       -2.6391591761       -1.8440556609
 H          3.0117334269       -3.3895512166       -1.9879033475
 H          2.0966046958       -2.0963953817       -2.7847277648
 H          2.7036741482       -4.9573381018        1.8077299990
 H          2.4972732331       -3.3845911036        2.5915945861
 H          3.7768089795       -3.9527619061       -0.1124326867
 H          4.5348232290       -3.2868393763        1.3473061329
 O          3.6794836440       -0.9970717187        1.2180091960
 C          3.3818128910        0.3404172586        1.0281999878
 O          3.7566899091        1.0828796127        1.9592715927
 O          1.8046829072        0.0924554701       -2.2311258795
 C          2.4151709226        2.2215778352       -0.2083781096
 C          1.1563095771        2.5068545006        0.5731215828
 C          1.0602988353        3.6216491918        1.3979145381
 C         -0.1064904139        3.8797493097        2.0954269291
 C         -1.1958337332        3.0354815059        1.9825949120
 C         -1.1034079153        1.9062215842        1.1751819601
 C          0.0677955949        1.6524760223        0.4771017543
 H          0.1262160654        0.7782218008       -0.1533900115
 N         -2.1722830348        1.0016704227        1.0845799740
 S         -2.3598657587        0.0985381851       -0.3306127233
 O         -1.4645055965       -1.0276518074       -0.2811830271
 O         -2.2697700907        0.9669471297       -1.4820588124
 C         -4.0403191122       -0.4588464279       -0.1193150731
 C         -4.2782378863       -1.6043757332        0.6159376245
 C         -5.5872791257       -2.0173742556        0.8077493902
 C         -6.6305792693       -1.2815266211        0.2657418752
 C         -6.3763520142       -0.1351141352       -0.4721510451
 C         -5.0695847292        0.2833486012       -0.6673492844
 H         -4.8228814784        1.1609532893       -1.2431454092
 H         -7.1889561725        0.4326715655       -0.8958012672
 H         -7.6482118592       -1.6053902146        0.4164001122
 H         -5.7884128809       -2.9103149931        1.3772434036
 H         -3.4344428405       -2.1471625333        1.0094597373
 H         -3.0482379850        1.3834549880        1.4135045652
 H         -2.1067166517        3.2380154479        2.5248904944
 H         -0.1698359763        4.7492983190        2.7318151031
 H          1.9122294733        4.2776944991        1.5002705045
 H          3.2445246717        2.7280562790        0.3131493408
 C          2.3579279329        2.7880955363       -1.6190043250
 C          1.0778339686        3.0370450722       -2.3521639381
 C          1.8884726424        4.1937578263       -1.8546362990
 H          2.4189714124        4.7983851888       -2.5745508271
 H          1.5058263086        4.7435385205       -1.0082876621
 H          1.0610718894        2.8231971501       -3.4100475079
 H          0.1483364797        2.7957480408       -1.8580950470
 H          3.1936497556        2.4466072895       -2.2211856095
