  62
        -98.94036732
 C         -2.4861914358       -1.1142314277        0.0798212387
 C         -2.6867406657       -0.0305473796       -0.8087902293
 C         -4.0811412752        0.3950406844       -0.9843954904
 C         -5.0674734691       -0.2608595606       -0.3461958060
 C         -6.5383884116        0.0416800570       -0.4418169843
 C         -7.0071516729        1.1575846080        0.5021284070
 C         -6.5729297415        2.5695741527        0.1067519331
 H         -6.8467686507        2.7550368068       -0.9322455773
 H         -7.1453406630        3.2649173622        0.7239166143
 C         -5.0768319435        2.8513333634        0.3047909228
 H         -4.6480143205        2.0971276794        0.9687106146
 H         -4.9499352298        3.8184510208        0.7963882421
 C         -4.2616616528        2.8907315944       -0.9879673108
 H         -3.2128425184        3.0547387758       -0.7270239235
 H         -4.5918305743        3.7299234051       -1.6042261854
 C         -4.3439664041        1.6076006822       -1.8252148214
 H         -5.3177383468        1.5342111562       -2.3088294174
 H         -3.5705514356        1.6504980122       -2.5959563548
 H         -8.0989627855        1.1287384828        0.5234009970
 H         -6.6491860081        0.9349421151        1.5099673844
 H         -6.7931956200        0.3011413778       -1.4695924218
 H         -7.0626445227       -0.8782638758       -0.1744630478
 O         -4.8331236733       -1.3200684340        0.4745437972
 C         -3.5422277516       -1.7550635295        0.7266119443
 O         -3.4671948930       -2.7052901692        1.5325065796
 O         -1.7550652477        0.5518210512       -1.4225382546
 C         -1.0801980109       -1.6145310810        0.3522686253
 C         -0.2052524187       -0.4862401906        0.8426887704
 C         -0.6810993117        0.3493193590        1.8505268144
 C          0.0936683302        1.3846844433        2.3350539692
 C          1.3680795010        1.5989589121        1.8397226945
 C          1.8543948533        0.7692135288        0.8372498327
 C          1.0687757766       -0.2648656813        0.3457109156
 H          1.4735167970       -0.8915372175       -0.4310268226
 N          3.1342967719        0.9737516872        0.2973394096
 S          4.0356855394       -0.3716880668       -0.1778888005
 O          3.6415019199       -0.7571239521       -1.5093257128
 O          3.9616869594       -1.4008664274        0.8346363082
 C          5.6713956591        0.3385144886       -0.2192621398
 C          6.0381357731        1.0933267043       -1.3177153170
 C          7.2972547042        1.6714931537       -1.3427549985
 C          8.1638671661        1.4868128049       -0.2754584770
 C          7.7826154324        0.7252151102        0.8189044045
 C          6.5239975308        0.1453815131        0.8511916175
 H          6.1872856831       -0.4610689535        1.6765986587
 H          8.4598083252        0.5806794976        1.6452214401
 H          9.1437840074        1.9368101634       -0.2983778615
 H          7.5982404024        2.2618977083       -2.1930998080
 H          5.3347970637        1.2013866681       -2.1269745084
 H          3.6889997542        1.6262215510        0.8342139276
 H          1.9756407633        2.4058536062        2.2204675625
 H         -0.2935864084        2.0267775537        3.1121001789
 H         -1.6734548029        0.1756202462        2.2455860940
 H         -1.1679383152       -2.3525117898        1.1642153364
 C         -0.5297214981       -2.3102411754       -0.8753035113
 C          0.4935093994       -3.3954160638       -0.7337264359
 C         -0.9086218990       -3.7352015604       -1.1390107612
 H         -1.0921835179       -4.0402571004       -2.1582344737
 H         -1.5482231448       -4.2186919989       -0.4147353339
 H          1.2791869479       -3.4607969759       -1.4720865363
 H          0.8140834470       -3.6530746632        0.2648930928
 H         -0.4514850492       -1.6464136481       -1.7295154250
