  62
        -98.94680913
 C         -1.1673831729       -1.1262438611       -0.1827235761
 C         -2.0367661517       -0.8139651663        0.8968038186
 C         -2.8593645779        0.3895872552        0.7446318836
 C         -2.7387218880        1.1399745366       -0.3649463602
 C         -3.5044647465        2.3984058534       -0.6724094138
 C         -4.8919410491        2.1480306661       -1.2795881940
 C         -5.9431106786        1.6182499140       -0.3032975130
 H         -5.9756390464        2.2595158632        0.5781041697
 H         -6.9117508343        1.7003035394       -0.8004529676
 C         -5.7320331968        0.1595246394        0.1260123882
 H         -5.0477516431       -0.3302091067       -0.5707062581
 H         -6.6819377106       -0.3770541280        0.0701710293
 C         -5.1978257831       -0.0132028840        1.5480257884
 H         -5.0530094291       -1.0808646485        1.7314358176
 H         -5.9367024894        0.3534642854        2.2640577640
 C         -3.8643816775        0.6982430743        1.8128757713
 H         -4.0226683042        1.7737666009        1.8890598565
 H         -3.4647821113        0.3333934909        2.7620122457
 H         -5.2485655803        3.0992042485       -1.6816014664
 H         -4.7881443158        1.4526234315       -2.1156920291
 H         -3.6097188709        2.9993933995        0.2313321162
 H         -2.9097057860        2.9574627163       -1.3974648982
 O         -1.8644733093        0.8344595208       -1.3563474473
 C         -1.0701244576       -0.3003868920       -1.3027517486
 O         -0.3414004601       -0.4344910002       -2.3074379325
 O         -2.1257105510       -1.5179768689        1.9367107875
 C         -0.3548855370       -2.4047114050       -0.0483737240
 C          1.0603013627       -2.1011259256        0.3782449626
 C          1.5369437577       -2.4982387365        1.6219377896
 C          2.8256877474       -2.1838923653        2.0190211234
 C          3.6611996883       -1.4566085546        1.1894946908
 C          3.1883361142       -1.0493676534       -0.0504917400
 C          1.9053156805       -1.3817777471       -0.4549182648
 H          1.5437357797       -1.0480569365       -1.4160210068
 N          4.0089930350       -0.2455622877       -0.8798106726
 S          4.2123291415        1.3118407547       -0.2918808915
 O          4.7214290998        2.0925222123       -1.3960598574
 O          5.0444550036        1.2520621359        0.8828152586
 C          2.5731106635        1.8589026463        0.1548525782
 C          1.8054149838        2.5053827249       -0.7922098207
 C          0.5154511533        2.8876146911       -0.4627976380
 C          0.0118634578        2.6003766675        0.7960350443
 C          0.7897272330        1.9361221809        1.7311506477
 C          2.0852967166        1.5641609239        1.4124334257
 H          2.7235851292        1.0583150849        2.1181467832
 H          0.3876720324        1.7033546851        2.7042121660
 H         -0.9952159794        2.8908995269        1.0503263808
 H         -0.0952299989        3.3968723885       -1.1910038496
 H          2.2315853466        2.7088127315       -1.7617553173
 H          3.6510180370       -0.1854261348       -1.8240778649
 H          4.6570794969       -1.1751127764        1.4910976875
 H          3.1811828178       -2.5016915331        2.9873525521
 H          0.8828578192       -3.0426598896        2.2871829212
 H         -0.8358684165       -2.9636617725        0.7654058665
 C         -0.3783640512       -3.2631694591       -1.2981139365
 C         -0.0669909521       -4.7240672591       -1.1820733761
 C         -1.4678108241       -4.2765665700       -1.4714840783
 H         -1.8692996022       -4.4369202505       -2.4608842354
 H         -2.2029192091       -4.3606961255       -0.6842982305
 H          0.4968146215       -5.1946564325       -1.9727993611
 H          0.1471729802       -5.1133080039       -0.1982952427
 H         -0.0389500269       -2.7451232382       -2.1855289105
