  62
        -98.93885810
 C         -1.3759436740       -1.4996870527        0.1906413028
 C         -2.1551278498       -0.6385325526        1.0054796002
 C         -3.1700474111        0.1681378731        0.3172204202
 C         -3.2843979004        0.0761351437       -1.0198814532
 C         -4.1954474683        0.9214969118       -1.8605633611
 C         -3.4846566905        2.2054173843       -2.3144502663
 C         -2.7810590269        2.9596284465       -1.1851210359
 H         -1.9588077790        2.3488307847       -0.8036532581
 H         -2.3377816297        3.8569069312       -1.6227270825
 C         -3.6992899003        3.3570982872       -0.0205098418
 H         -3.4921038775        4.3942509216        0.2514497983
 H         -4.7412150912        3.3098902071       -0.3393228169
 C         -3.5172365360        2.5164233407        1.2442566563
 H         -2.4600962093        2.4863651893        1.5160376229
 H         -4.0557434725        3.0066178481        2.0594210214
 C         -4.0247712560        1.0721085923        1.1601124513
 H         -5.0583321604        1.0619867501        0.8085776977
 H         -4.0001321536        0.6528192164        2.1700157644
 H         -2.7375146716        1.9394327051       -3.0663799335
 H         -4.2208362786        2.8588360399       -2.7861650647
 H         -4.4879028620        0.3476606594       -2.7415101764
 H         -5.0871642684        1.1696872336       -1.2882727393
 O         -2.5216241015       -0.7584396104       -1.7705718648
 C         -1.5460433852       -1.5651772834       -1.1932916069
 O         -0.9157578685       -2.2550497760       -2.0157034294
 O         -1.9943568141       -0.5381893347        2.2497659818
 C         -0.2940981697       -2.3038291799        0.8818911619
 C          1.0503397948       -2.1471172068        0.2115661591
 C          2.0319191061       -3.1307497147        0.2644889184
 C          3.2836862031       -2.9171957183       -0.2872418367
 C          3.5872853765       -1.7227154064       -0.9149464791
 C          2.6098087225       -0.7426550653       -0.9915408502
 C          1.3658886302       -0.9489417378       -0.4167306873
 H          0.6200362188       -0.1650073741       -0.4703969767
 N          2.9212941570        0.4925273087       -1.6210949460
 S          3.6410645058        1.5937148605       -0.5832040137
 O          3.8066374524        2.8149132816       -1.3377868554
 O          4.8378180182        0.9954631190       -0.0513766013
 C          2.4348676547        1.8308123708        0.7083806171
 C          1.4802989777        2.8159101225        0.5521228414
 C          0.4673137733        2.9234623569        1.4913641865
 C          0.4150639470        2.0345196574        2.5544558962
 C          1.3805557580        1.0499819995        2.6959618368
 C          2.4018442237        0.9427657469        1.7654295964
 H          3.1706625371        0.1905990048        1.8410292440
 H          1.3283480192        0.3577752004        3.5207894104
 H         -0.3872132074        2.0972840239        3.2729413472
 H         -0.2810373296        3.6933749352        1.3856413108
 H          1.5528363365        3.4820647410       -0.2931776581
 H          2.1143772112        0.9297644348       -2.0448232826
 H          4.5585602783       -1.5319863246       -1.3406820357
 H          4.0316643743       -3.6929900387       -0.2289048203
 H          1.8186893534       -4.0740333295        0.7397743612
 H         -0.2106266594       -1.8272336594        1.8745551291
 C         -0.6616689774       -3.7621789279        1.1386898443
 C         -2.0417913915       -4.2886391549        0.8845990397
 C         -0.9039134363       -4.7204331395        0.0120574908
 H         -0.5380005414       -5.7323670796        0.1055669674
 H         -0.8560962822       -4.3223656258       -0.9895526056
 H         -2.4551689838       -4.9963528768        1.5878647716
 H         -2.7732513439       -3.6125594453        0.4656387755
 H         -0.1659963203       -4.1654431202        2.0158426703
