  62
        -98.94239331
 C         -1.5360021696       -1.3513883494        0.5389905402
 C         -1.4177780699       -0.2143151200       -0.2995829705
 C         -2.2530556702        0.9368281301        0.0765144588
 C         -2.9652159000        0.9098623907        1.2161695189
 C         -3.8403745202        2.0146828109        1.7425446882
 C         -5.2594655103        2.0140570202        1.1576610783
 C         -5.3609474405        2.4675220292       -0.2992732720
 H         -6.4201625106        2.6256038288       -0.5119241020
 H         -4.8594406407        3.4289007492       -0.4146012927
 C         -4.7975175004        1.4645747486       -1.3158448614
 H         -4.7003495901        0.4837693390       -0.8443275207
 H         -5.5015467304        1.3509405079       -2.1432579612
 C         -3.4497639705        1.8617755085       -1.9183796717
 H         -3.5674997608        2.7764573481       -2.5033402323
 H         -3.1327003004        1.0668086981       -2.5981704212
 C         -2.3327967105        2.0804150594       -0.8884948520
 H         -1.3802199605        2.1250395593       -1.4202319721
 H         -2.4907135106        3.0191860898       -0.3582105826
 H         -5.6782986401        1.0097564902        1.2574354490
 H         -5.8647907104        2.6873060505        1.7691657279
 H         -3.9130060201        1.8673385816        2.8223993983
 H         -3.3689211805        2.9796062208        1.5544092275
 O         -2.9485845797       -0.1563650787        2.0615624696
 C         -2.2671665895       -1.3168830088        1.7285648903
 O         -2.3703255093       -2.2287544683        2.5746936409
 H          0.9800212105       -1.4001651881        1.7096984300
 C          1.4102084205       -1.6849279987        0.7565436702
 C          0.6169543905       -2.3560779394       -0.1665480593
 C          1.1756111705       -2.7080787801       -1.3874006491
 C          2.4931820504       -2.3923030101       -1.6711905394
 C          3.2788914403       -1.7238421193       -0.7509542699
 C          2.7270910504       -1.3625901986        0.4717109099
 N          3.5126796303       -0.6739457978        1.4162572893
 S          4.3386009700        0.6865520121        0.8968410383
 O          5.4947300800        0.2804677818        0.1378318485
 O          4.6048805599        1.4439570529        2.0997523178
 C          3.1990977597        1.5705579011       -0.1503228821
 C          3.3539903196        1.5417879702       -1.5206553121
 C          2.4367898294        2.2149608395       -2.3111008125
 C          1.3881228493        2.9013596197       -1.7208451829
 C          1.2450496894        2.9190456406       -0.3421472729
 C          2.1551985396        2.2432863913        0.4524640475
 H          2.0792583997        2.2414623620        1.5286094475
 H          0.4256269993        3.4500854307        0.1155608068
 H          0.6771895991        3.4271869691       -2.3389762832
 H          2.5406234093        2.1995924388       -3.3840012725
 H          4.1881719996        1.0042139901       -1.9403868719
 H          3.0226429303       -0.4756555673        2.2765225592
 H          4.3063163303       -1.4716710792       -0.9573573502
 H          2.9138558204       -2.6680745706       -2.6261794193
 H          0.5732374805       -3.2071457308       -2.1282181987
 C         -0.8104745894       -2.6484532095        0.2248376010
 H         -0.7882236992       -3.2021857288        1.1783591814
 C         -1.5416196193       -3.5349820903       -0.7728096883
 C         -3.0370527393       -3.5073578107       -0.8729540482
 C         -2.2009169595       -2.9862320413       -2.0008606786
 H         -2.1526755195       -3.5663427019       -2.9108043282
 H         -2.1543142197       -1.9208342614       -2.1594375393
 H         -3.5599431191       -4.4427712709       -1.0047286175
 H         -3.5666877794       -2.7971945304       -0.2540812986
 H         -1.0750830891       -4.5111214903       -0.8631541077
 O         -0.6693248000       -0.1485434405       -1.3057868606
