  62
        -98.93733497
 C         -2.2686594305       -0.7196304665        0.0802691557
 C         -3.5545843139       -1.1122980609        0.5338132771
 C         -4.6984862605       -0.5444609566       -0.1874363762
 C         -4.4855532805        0.2989895759       -1.2132940436
 C         -5.5445617399        0.9384918469       -2.0697688220
 C         -6.1420095585        2.2187758290       -1.4701717693
 C         -7.0740644807        2.0038498235       -0.2771117751
 H         -7.5864910284        2.9508286050       -0.0964511400
 H         -7.8340596546        1.2672849851       -0.5395178563
 C         -6.3618751343        1.5744793419        1.0132367392
 H         -5.2938019967        1.7882401246        0.9279917219
 H         -6.7398485122        2.1642794363        1.8513799851
 C         -6.5441313181        0.1011736199        1.3785245446
 H         -7.5965029010       -0.0954089044        1.5948929108
 H         -5.9701986593       -0.1004171812        2.2865954382
 C         -6.0766847900       -0.8812923177        0.2965217954
 H         -6.0407030499       -1.8819097896        0.7341965385
 H         -6.7805860586       -0.8880134457       -0.5354425720
 H         -5.3240701809        2.8821021984       -1.1795895230
 H         -6.7078987088        2.7155788717       -2.2615943444
 H         -5.0649079250        1.1931409460       -3.0173031759
 H         -6.3410108020        0.2198295762       -2.2649490361
 O         -3.2385858373        0.6649316603       -1.6090044282
 C         -2.1007008400        0.1935821114       -0.9621557824
 O         -1.0412596388        0.6635482895       -1.4156489603
 O         -3.7372371323       -1.9001707685        1.4997834828
 C         -1.0663721794       -1.2832724146        0.8158942154
 C         -0.0905556447       -0.1857594426        1.1544465826
 C         -0.4685530932        0.7857497864        2.0780599902
 C          0.3913910315        1.8125520655        2.4151230597
 C          1.6521291025        1.8842792123        1.8493002876
 C          2.0348380105        0.9258539042        0.9185694714
 C          1.1659832598       -0.1013831341        0.5778901239
 H          1.4802521634       -0.8193011351       -0.1610633964
 N          3.2934488202        0.9941484451        0.3014197806
 S          4.0763907660       -0.4376068156       -0.1195806882
 O          3.5927892696       -0.8908417459       -1.3991020571
 O          3.9900909456       -1.3880091551        0.9676138798
 C          5.7501834885        0.1553834959       -0.2897281706
 C          6.1031280571        0.8081279437       -1.4560402995
 C          7.3924709159        1.2992828317       -1.5849234976
 C          8.3027069900        1.1301941353       -0.5519141541
 C          7.9348070450        0.4713006149        0.6114799620
 C          6.6460809866       -0.0208011812        0.7477737925
 H          6.3171538825       -0.5459673421        1.6300191919
 H          8.6457847981        0.3385332573        1.4109433690
 H          9.3059357366        1.5122427325       -0.6558467387
 H          7.6825843455        1.8099908500       -2.4889714456
 H          5.3643609769        0.9072975574       -2.2344366275
 H          3.9185772598        1.6531658631        0.7443003924
 H          2.3275409630        2.6835689395        2.1143864444
 H          0.0828112559        2.5595120515        3.1311886195
 H         -1.4526359222        0.7260977520        2.5236919479
 H         -1.4820645261       -1.6692020436        1.7625197526
 C         -0.4064422998       -2.4656412132        0.1230020107
 C         -1.2140404378       -3.4472087959       -0.6706924614
 C         -0.2411229298       -2.5432311815       -1.3636601516
 H          0.6757762452       -2.9636895231       -1.7518115904
 H         -0.6230338815       -1.7254723533       -1.9547461938
 H         -0.9748013822       -4.4966010150       -0.5872427893
 H         -2.2687992057       -3.2450725172       -0.7878898148
 H          0.4041587604       -2.8779526769        0.7183885791
