  62
        -98.93825641
 C          1.5409582193        0.8910050614        0.8946336212
 C          2.0709420209        0.3218705169       -0.2893807653
 C          2.4246501385       -1.1097766430       -0.2281491653
 C          2.1483696645       -1.8150440400        0.8805360262
 C          2.4414922007       -3.2627476289        1.1909760397
 C          2.2575894438       -4.2921240529        0.0704819967
 C          1.0828034674       -4.0178041829       -0.8797597009
 H          0.4647524187       -4.9149506669       -0.9532521940
 H          0.4485356310       -3.2187024879       -0.4905807272
 C          1.5320945470       -3.6343937344       -2.2908572749
 H          2.3610751199       -4.2798695887       -2.5918537900
 H          0.7037821033       -3.8132032045       -2.9808372431
 C          1.9401169677       -2.1714153221       -2.4503961993
 H          1.0586056427       -1.5379147550       -2.3179021719
 H          2.2926513322       -2.0259249331       -3.4748852226
 C          3.0274850502       -1.6827477253       -1.4784503458
 H          3.7403828098       -2.4738842724       -1.2553928620
 H          3.5620815062       -0.8592191763       -1.9601763552
 H          3.1748317617       -4.3653495438       -0.5121770534
 H          2.1150411883       -5.2600965059        0.5545704280
 H          3.4679809682       -3.3246463617        1.5656855051
 H          1.7814628622       -3.5124861285        2.0257580930
 O          1.5522480334       -1.2458242103        1.9681089565
 C          1.2350388502        0.1015725930        2.0032949511
 O          0.6831216565        0.4662516862        3.0610773658
 H         -1.0507216330        1.0087057410        0.3143939897
 C         -0.8674493245        1.7884012870       -0.4108196800
 C          0.2247794981        2.6284500926       -0.2324299825
 C          0.4479818244        3.6348831461       -1.1608176625
 C         -0.3917165049        3.7686359629       -2.2539912418
 C         -1.4468685308        2.8974614659       -2.4542382364
 C         -1.6812148945        1.8901010515       -1.5245055740
 N         -2.7358197957        0.9767359465       -1.6777224086
 S         -2.5138422467       -0.6113559868       -1.1902642703
 O         -1.1505113873       -1.0499152212       -1.3631870911
 O         -3.5174657164       -1.3523285347       -1.9271944924
 C         -2.9583147902       -0.6088229172        0.5328683706
 C         -4.1538860840       -0.0270620011        0.9054614216
 C         -4.5095177782       -0.0305143849        2.2444538957
 C         -3.6693329063       -0.6119784179        3.1824597998
 C         -2.4752221602       -1.1978303269        2.7921377111
 C         -2.1169743028       -1.1995042981        1.4538699070
 H         -1.1874314474       -1.6306671241        1.1133792301
 H         -1.8110066861       -1.6373251728        3.5190630275
 H         -3.9427546188       -0.6083142609        4.2257725188
 H         -5.4369829062        0.4232670207        2.5546166211
 H         -4.7774037528        0.4161641898        0.1471106187
 H         -3.2309898182        1.0367729883       -2.5555475926
 H         -2.0782359526        2.9859784657       -3.3253519829
 H         -0.2064252668        4.5501668359       -2.9754650114
 H          1.2934041645        4.2934810823       -1.0474807981
 C          1.1017637388        2.3461224545        0.9622519395
 H          0.4656256742        2.4010119643        1.8617134035
 C          2.2194479398        3.3559122575        1.1655358677
 C          3.5006622563        2.9602713667        1.8359458760
 C          3.4965839313        3.3255069859        0.3833712713
 H          3.9388504777        4.2678178869        0.0936608113
 H          3.6153195735        2.5427793396       -0.3480151183
 H          3.9455081518        3.6461916489        2.5412673005
 H          3.6230413638        1.9195142745        2.0999969899
 H          1.8307441985        4.3375480338        1.4195175152
 O          2.2721509213        0.9692712271       -1.3483963870
