  62
        -98.94671932
 C         -1.9898552386       -1.4569075687       -0.0956482400
 C         -1.7162869528       -0.2199383999       -0.7250467227
 C         -2.8685988279        0.6729755684       -0.9105967757
 C         -4.0894931584        0.2627505092       -0.5213014032
 C         -5.3377071479        1.0920590096       -0.6016501573
 C         -5.5606728653        1.8867563182        0.6930500398
 C         -4.3246082054        2.6475004777        1.1733684467
 H         -4.6095760434        3.1917377127        2.0763612100
 H         -3.5535509307        1.9291730425        1.4613232868
 C         -3.7433362756        3.6296496096        0.1467357748
 H         -4.4879053030        3.8482062176       -0.6195664709
 H         -3.5140023008        4.5694447296        0.6532635706
 C         -2.4513208976        3.1565158512       -0.5222228904
 H         -2.0141015125        4.0067934366       -1.0528048986
 H         -1.7389549377        2.8407348366        0.2446538055
 C         -2.6070963956        2.0147086697       -1.5348967747
 H         -3.3877761414        2.2651063986       -2.2559264996
 H         -1.6610849442        1.9132500789       -2.0752971928
 H         -6.3815381536        2.5875859918        0.5304281858
 H         -5.8602485710        1.1898080317        1.4792465857
 H         -5.2628008866        1.7707666865       -1.4490405319
 H         -6.1859092784        0.4233956716       -0.7577005547
 O         -4.3190318511       -0.9508631312        0.0432067704
 C         -3.2773645166       -1.8306492619        0.2889772164
 O         -3.6190051836       -2.8929784216        0.8467788547
 O         -0.5692283968        0.1264621685       -1.1086177900
 C         -0.8550663256       -2.4279329773        0.1786133595
 C          0.1982587754       -1.7465197013        1.0182135396
 C         -0.1871065447       -1.1651233245        2.2246773516
 C          0.7341360128       -0.5224330829        3.0276662694
 C          2.0605158233       -0.4369258719        2.6398206274
 C          2.4570329522       -1.0173262510        1.4420656722
 C          1.5305453081       -1.6780122803        0.6443782464
 H          1.8690693479       -2.1132835849       -0.2803427161
 N          3.8031666902       -0.9691292645        1.0331821177
 S          4.2029027850       -0.3164452966       -0.4571209387
 O          3.5691626015       -1.0662986603       -1.5092249330
 O          5.6500944272       -0.2991180921       -0.4674129206
 C          3.5944623851        1.3596419050       -0.3979460023
 C          4.4847032436        2.3681228532       -0.0801942334
 C          4.0194132783        3.6683835668        0.0247975534
 C          2.6740029255        3.9366277905       -0.1796106190
 C          1.7947056482        2.9121684464       -0.4922229125
 C          2.2522982237        1.6076685076       -0.6031934401
 H          1.5757604052        0.8035985780       -0.8460003095
 H          0.7463819549        3.1088979352       -0.6521007454
 H          2.3082940848        4.9480191833       -0.0960183775
 H          4.7035637441        4.4658940754        0.2665098028
 H          5.5221600807        2.1131600915        0.0652374623
 H          4.4252791918       -0.5899666592        1.7336995489
 H          2.7824556950        0.0705821495        3.2616986845
 H          0.4182443889       -0.0778652898        3.9593705761
 H         -1.2258220029       -1.2261736131        2.5216260330
 H         -1.2897284315       -3.2460346642        0.7714770043
 C         -0.3241006012       -2.9996003784       -1.1188519350
 C          0.3269164510       -4.3487741199       -1.1328103991
 C         -1.0299897629       -4.1644886334       -1.7417887702
 H         -1.1231106365       -4.1965651089       -2.8170388939
 H         -1.8863545261       -4.5631321000       -1.2170315947
 H          1.1696620945       -4.5054293019       -1.7894687595
 H          0.3938296230       -4.8813483803       -0.1960245841
 H          0.0681682753       -2.2405113831       -1.7865457385
