  62
        -98.94451621
 C         -1.3739653655       -1.4697451944        0.4246780052
 C         -1.7098905649       -0.4405495586        1.3407956507
 C         -2.8271340737        0.4331028718        0.9647458188
 C         -3.4521488384        0.2296210399       -0.2082701907
 C         -4.5894407568        1.0565628998       -0.7320249522
 C         -4.0890500345        2.1970390004       -1.6282623393
 C         -2.9597116204        3.0256289120       -1.0144867503
 H         -2.0525585764        2.4193136411       -0.9445716819
 H         -2.7366263732        3.8357868761       -1.7130620279
 C         -3.2791027120        3.6190675379        0.3647658061
 H         -2.9308557249        4.6539944207        0.3838450713
 H         -4.3585213119        3.6353116117        0.5229592513
 C         -2.6005444564        2.9021212958        1.5337628599
 H         -1.5394903505        2.7709173116        1.3020434554
 H         -2.6683358571        3.5463849264        2.4147811087
 C         -3.1922608296        1.5381519228        1.9144708639
 H         -2.7765508234        1.2521498254        2.8851255429
 H         -4.2763373409        1.6224329480        2.0158491912
 H         -4.9343692130        2.8490347587       -1.8579166220
 H         -3.7252622413        1.7686561589       -2.5652014090
 H         -5.2425119254        0.4079831635       -1.3190429625
 H         -5.1532704636        1.4602119800        0.1068230740
 O         -3.0853488522       -0.7444311193       -1.0777793435
 C         -2.0030053308       -1.5763511327       -0.8170503132
 O         -1.7261174742       -2.3450272034       -1.7561749908
 H          0.5612551189       -0.0359323656       -0.3276867137
 C          1.1384145758       -0.8451755412       -0.7455803538
 C          0.8777042019       -2.1455101693       -0.3348769126
 C          1.5987032017       -3.1783105490       -0.9178518620
 C          2.5471751818       -2.9011928564       -1.8889144312
 C          2.8122499786       -1.6021379696       -2.2832018178
 C          2.0920757017       -0.5614279181       -1.7062708876
 N          2.3060762037        0.7751059274       -2.0703737754
 S          2.0642733426        1.9945222519       -0.9538022930
 O          0.6565963019        2.2077350098       -0.7291819962
 O          2.7910325046        3.1209340712       -1.5008155164
 C          2.8746209261        1.4263563144        0.5313252700
 C          4.2507855245        1.3053448520        0.4887959585
 C          4.9201948113        0.8280591054        1.6028540312
 C          4.2048374403        0.4761528640        2.7378750079
 C          2.8260726905        0.6100220707        2.7681961002
 C          2.1507986389        1.0903566184        1.6565412845
 H          1.0764964505        1.1933429905        1.6601096695
 H          2.2605748202        0.3373233358        3.6451053684
 H          4.7234121935        0.0976654899        3.6045361027
 H          5.9934342708        0.7285200534        1.5829885235
 H          4.7721797194        1.5999445249       -0.4074060121
 H          3.0986198006        0.9449523064       -2.6704861488
 H          3.5542336729       -1.3937128257       -3.0384546478
 H          3.0942990134       -3.7129180634       -2.3438720234
 H          1.4065401547       -4.1988221766       -0.6301909335
 C         -0.1573976759       -2.3190365213        0.7496917090
 H          0.2527939855       -1.8449614009        1.6588482915
 C         -0.4348930270       -3.7673480911        1.1197314823
 C         -1.7996662710       -4.2151972324        1.5480494939
 C         -1.2261135626       -4.6969143723        0.2508053368
 H         -0.9083119834       -5.7275156129        0.1852662377
 H         -1.6279203048       -4.2999298026       -0.6672402112
 H         -1.8791445418       -4.9102488897        2.3706429111
 H         -2.5985174115       -3.4882307665        1.5095621926
 H          0.3980771741       -4.2089117538        1.6586331843
 O         -1.0909311971       -0.2541101860        2.4236212557
