  62
        -98.94941036
 C         -1.3828669989       -1.5806389824        0.2773335258
 C         -1.6273979257       -0.5856449156        1.2538908741
 C         -2.7762236993        0.2938704653        1.0102168478
 C         -3.5173372675        0.1127002927       -0.0977137565
 C         -4.7024924349        0.9485585126       -0.4837069380
 C         -4.2995163685        2.1148567518       -1.3955359937
 C         -3.1204975361        2.9378852826       -0.8752105719
 H         -2.2072574210        2.3381952891       -0.9077197247
 H         -2.9722243839        3.7673577204       -1.5709988758
 C         -3.3040334155        3.4929333435        0.5440210295
 H         -4.3619108029        3.4939944098        0.8116163684
 H         -2.9628904166        4.5303089277        0.5557423063
 C         -2.5029882997        2.7511890561        1.6159630609
 H         -1.4721457539        2.6342411256        1.2694021424
 H         -2.4806390528        3.3712756550        2.5165520904
 C         -3.0469771074        1.3737244934        2.0187485043
 H         -2.5338362079        1.0660126210        2.9347197966
 H         -4.1155883287        1.4477911902        2.2321994421
 H         -5.1674148553        2.7650253081       -1.5239877636
 H         -4.0279611012        1.7127919216       -2.3744594970
 H         -5.4096877899        0.3116856574       -1.0184886381
 H         -5.1801059164        1.3277049004        0.4177806264
 O         -3.2494379595       -0.8478138698       -1.0187004083
 C         -2.1534568067       -1.6883183612       -0.8798379860
 O         -1.9877809086       -2.4739412672       -1.8325635487
 H          0.4012328873       -0.0376668188       -0.4527911955
 C          1.0513681596       -0.7726401280       -0.8988760531
 C          0.8832235053       -2.1136468527       -0.5849387994
 C          1.7137307007       -3.0434695232       -1.1980579564
 C          2.6728750300       -2.6289449071       -2.1067879232
 C          2.8415989959       -1.2892428208       -2.4079300564
 C          2.0175133009       -0.3509749135       -1.7964740058
 N          2.1352707093        1.0189161398       -2.0702718548
 S          1.8326131391        2.1459065450       -0.8715760310
 O          0.4225366172        2.2185089532       -0.5866974521
 O          2.4371364587        3.3613969191       -1.3748140105
 C          2.7557008900        1.5651271245        0.5399452266
 C          2.1271049402        0.9884875262        1.6238876013
 C          2.9042044675        0.5096526743        2.6682595002
 C          4.2845228608        0.6143993196        2.6137158107
 C          4.9012176359        1.2041992399        1.5200603786
 C          4.1317973574        1.6812056883        0.4728279806
 H          4.5705680080        2.1580290981       -0.3887041299
 H          5.9750801229        1.2906051850        1.4809365073
 H          4.8815379386        0.2371451275        3.4289527098
 H          2.4148553226        0.0538128989        3.5143098690
 H          1.0514298517        0.9083850463        1.6536394296
 H          2.9214212140        1.2790429222       -2.6464923224
 H          3.5922904026       -0.9715822724       -3.1150245117
 H          3.3053841744       -3.3618400639       -2.5841700311
 H          1.6047416198       -4.0913933439       -0.9713487526
 C         -0.1672068403       -2.4741705902        0.4393635885
 H          0.2433044857       -2.2248612119        1.4305744335
 C         -0.5475955905       -3.9391722520        0.4271593766
 C          0.2362611886       -4.9299004297        1.2339074116
 C         -1.1452270737       -4.5404060318        1.6631187142
 H         -1.9451159086       -5.2569390881        1.5524623406
 H         -1.2524223150       -3.8979787295        2.5250983176
 H          1.0679793502       -4.5583129611        1.8131747653
 H          0.3846931430       -5.9202050487        0.8304655471
 H         -0.9502433997       -4.2571757108       -0.5274382517
 O         -0.9119107985       -0.4394809661        2.2827454430
