  62
        -98.94660665
 C          2.4966719408        0.3288178893       -0.0256801492
 C          2.3148285154        1.4720040547       -0.8373238478
 C          1.6502006676        2.6111619281       -0.1976567934
 C          1.2629321786        2.5199913191        1.0877598346
 C          0.5445805179        3.5852613558        1.8706119506
 C         -0.9731676187        3.5862090467        1.6384631401
 C         -1.4239840698        4.1658076808        0.2965369831
 H         -2.4997799253        4.3375803429        0.3691719914
 H         -0.9470505289        5.1343259649        0.1394390484
 C         -1.1539917164        3.2504037043       -0.9055103652
 H         -0.9848601529        2.2319919240       -0.5480603920
 H         -2.0398135064        3.2255356757       -1.5451817403
 C          0.0218470771        3.6793267286       -1.7837267063
 H         -0.2071143115        4.6349706673       -2.2617023016
 H          0.1523921182        2.9311230099       -2.5698358357
 C          1.3554724463        3.8171633069       -1.0389998687
 H          2.1532985558        3.9043274092       -1.7811848608
 H          1.3510938170        4.7159832942       -0.4227537325
 H         -1.3360441162        2.5585971374        1.7286221207
 H         -1.4270497784        4.1755237373        2.4390961559
 H          0.7332051923        3.3765480007        2.9259762791
 H          0.9559776961        4.5662520253        1.6297637864
 O          1.5016766643        1.4208254148        1.8509415447
 C          2.0809469906        0.2878372503        1.3057362792
 O          2.1938228882       -0.6674645969        2.1008864266
 H          0.4242029851       -0.7647594823       -0.8876882852
 C          0.7245903456       -1.7675292833       -0.6247511163
 C          2.0747551616       -2.0601067641       -0.4773738217
 C          2.4389743708       -3.3639400715       -0.1682289612
 C          1.4695482571       -4.3321705913        0.0318046257
 C          0.1257902578       -4.0148038716       -0.0387300552
 C         -0.2484111029       -2.7161407377       -0.3639692970
 N         -1.6087943642       -2.3372592129       -0.4381526048
 S         -2.1127668757       -1.0931538272        0.5969074415
 O         -1.2855579859        0.0694276039        0.4231925025
 O         -2.2307668783       -1.6142190839        1.9445893093
 C         -3.7384870109       -0.7831711342       -0.0652142796
 C         -3.8602303637        0.0827298020       -1.1343286379
 C         -5.1154514414        0.3047174179       -1.6779076739
 C         -6.2217398228       -0.3424221246       -1.1478528806
 C         -6.0842119942       -1.2082446590       -0.0735521657
 C         -4.8312669514       -1.4336982712        0.4746050023
 H         -4.6795552692       -2.0873783053        1.3183804645
 H         -6.9464327240       -1.7071709601        0.3385895587
 H         -7.1974223752       -0.1679980905       -1.5731033345
 H         -5.2251411635        0.9798971339       -2.5112260475
 H         -2.9734041151        0.5684883695       -1.5078524142
 H         -2.2184108850       -3.1289554514       -0.2693607034
 H         -0.6288147791       -4.7611785757        0.1616227074
 H          1.7652897471       -5.3417982394        0.2743805849
 H          3.4813610071       -3.6200721855       -0.0686712130
 C          3.0669649614       -0.9343957457       -0.6444948817
 H          3.1776309168       -0.7147227122       -1.7173402969
 C          4.4316461107       -1.2487611832       -0.0677602741
 C          5.4726170811       -1.9295810356       -0.9044112895
 C          5.6183949299       -0.4784711205       -0.5614924158
 H          6.3759934289       -0.1869107640        0.1502495019
 H          5.4425695516        0.2530294833       -1.3365998570
 H          6.1358875414       -2.6354735768       -0.4275563264
 H          5.2097808265       -2.1844749002       -1.9199013243
 H          4.3883761223       -1.4801953061        0.9910128985
 O          2.6820238466        1.5322268594       -2.0432095102
