  62
        -98.93662317
 C         -0.0014922425       -1.7669973512        0.9014341640
 C         -0.7418785278       -1.7496261639       -0.3052406805
 C         -2.0337096316       -1.0344950458       -0.2805509203
 C         -2.4291835118       -0.4344729589        0.8545878455
 C         -3.6558941186        0.4089889537        1.0880396311
 C         -3.8806601941        1.5212297885        0.0492547163
 C         -5.1208078289        1.2908437591       -0.8143549185
 H         -5.9230543871        0.9084558540       -0.1796469421
 H         -5.4506700087        2.2509870906       -1.2173739778
 C         -4.9090750946        0.3430195681       -1.9932306202
 H         -4.2863380636        0.8380146665       -2.7422080501
 H         -5.8848239209        0.1589437901       -2.4495620865
 C         -4.2651709048       -1.0037082016       -1.6527230978
 H         -4.6580276111       -1.3939037760       -0.7150273319
 H         -4.5503945332       -1.7105192296       -2.4352795215
 C         -2.7313818179       -0.9673782023       -1.6110063282
 H         -2.3322776574       -1.8182724302       -2.1733164563
 H         -2.3549379302       -0.0768055603       -2.1270924477
 H         -2.9972280376        1.6210820885       -0.5842256539
 H         -4.0044458763        2.4662821393        0.5814680729
 H         -4.5343423716       -0.2369965451        1.1390056831
 H         -3.5260326009        0.8440941380        2.0813877332
 O         -1.7062747481       -0.5155046055        2.0097784873
 C         -0.4681884736       -1.1306698719        2.0515564453
 O          0.1127942051       -1.0380482657        3.1513151157
 H          1.4916079806        0.2428027296        0.2827079663
 C          2.0673599938       -0.3429607880       -0.4196547201
 C          2.1703567916       -1.7159412471       -0.2285738981
 C          2.9198687345       -2.4559936756       -1.1314912502
 C          3.5205062939       -1.8319745133       -2.2123416048
 C          3.3695746943       -0.4744449770       -2.4268271268
 C          2.6258325665        0.2764779186       -1.5228036329
 N          2.4412810526        1.6579531990       -1.6908307117
 S          0.9757761084        2.3533704968       -1.2735879406
 O         -0.1469475889        1.4880768110       -1.5476177004
 O          0.9772869146        3.6211913798       -1.9756884833
 C          1.1116211159        2.6665944410        0.4726288075
 C          0.0502359207        2.3531159055        1.2974794479
 C          0.1562412445        2.6046246327        2.6556653249
 C          1.3163197960        3.1703760822        3.1611387750
 C          2.3699965962        3.4903463452        2.3179340769
 C          2.2705061797        3.2381401286        0.9591590724
 H          3.0690780488        3.4675955744        0.2736379345
 H          3.2695163444        3.9304743818        2.7172294280
 H          1.3980108179        3.3584723619        4.2200128487
 H         -0.6589911208        2.3417695048        3.3107640707
 H         -0.8283469931        1.8991923934        0.8656038066
 H          2.8028178099        2.0363913063       -2.5542964393
 H          3.8115539772        0.0011617398       -3.2892468998
 H          4.0954144937       -2.4179268503       -2.9135314774
 H          3.0102896179       -3.5228543140       -1.0093743597
 C          1.4241294733       -2.2952544004        0.9497948124
 H          1.8521262068       -1.8555148667        1.8666078433
 C          1.5624819175       -3.8022414998        1.0922828783
 C          0.4586386909       -4.6225770102        1.6886788756
 C          0.7986046689       -4.7660971597        0.2371559929
 H          1.2962786526       -5.6699097203       -0.0834279047
 H          0.1244224914       -4.3525657705       -0.4953710996
 H          0.7212675077       -5.4232160898        2.3638950388
 H         -0.4562134256       -4.1108802095        1.9510240836
 H          2.5725927696       -4.0909980565        1.3665050928
 O         -0.3494542929       -2.2933638254       -1.3699114763
