  62
        -98.93449596
 C          2.3005187849       -0.2797550628       -0.1815621386
 C          3.4843621956       -0.6428324887       -0.8615428222
 C          4.7103524691        0.1014282546       -0.5136520673
 C          4.6309080641        1.0821749314        0.4051919363
 C          5.7419749148        1.9417620681        0.9468577165
 C          6.6284521017        1.1946346220        1.9565843346
 C          7.0141276594       -0.2244254168        1.5470684609
 H          7.5427337892       -0.6804475181        2.3883767637
 H          6.1069535067       -0.8083648501        1.3808930269
 C          7.9160419356       -0.3254954602        0.3192339835
 H          8.1789501506       -1.3792731857        0.1963857365
 H          8.8394110706        0.2270724111        0.5067156671
 C          7.3129970996        0.1692354042       -0.9970726294
 H          7.9604244756       -0.1849169470       -1.8046312453
 H          7.3213734040        1.2545518077       -1.0489505667
 C          5.9148717824       -0.3619883998       -1.2975738338
 H          5.6805531764       -0.1517148363       -2.3482338807
 H          5.9219367925       -1.4551219463       -1.2191843281
 H          7.5301245318        1.7851692460        2.1271884559
 H          6.0825551484        1.1307282090        2.9010256898
 H          6.3359632437        2.3423840976        0.1309397413
 H          5.2665816153        2.7823330594        1.4570137800
 O          3.4605098001        1.4067091313        1.0270208168
 C          2.2751820751        0.7478313889        0.7599595990
 O          1.2960090860        1.1623339885        1.4093143219
 O          3.5240692994       -1.5567272654       -1.7302038106
 C          1.0148134123       -1.0229851844       -0.4919066337
 C         -0.0365645182       -0.0616647805       -0.9877694870
 C          0.2734374073        0.7770209346       -2.0563564685
 C         -0.6584382788        1.6695895690       -2.5476130840
 C         -1.9254542523        1.7362956599       -1.9943686435
 C         -2.2447496689        0.9056006954       -0.9276507975
 C         -1.3030670719        0.0132600241       -0.4322959972
 H         -1.5801779590       -0.6176443849        0.3952040427
 N         -3.5126310367        0.9677133437       -0.3278045540
 S         -4.1961655348       -0.4541153246        0.2712868447
 O         -3.6870481679       -0.7032792666        1.5962320853
 O         -4.0345692422       -1.5241335407       -0.6874299402
 C         -5.9096135561        0.0324029998        0.3691652090
 C         -6.7757381854       -0.3213030275       -0.6482183227
 C         -8.0987300278        0.0855160822       -0.5741665603
 C         -8.5300705501        0.8376721107        0.5080827022
 C         -7.6492634470        1.1843701613        1.5220581548
 C         -6.3255469867        0.7798196992        1.4549892253
 H         -5.6075116196        1.0169658111        2.2228084854
 H         -7.9889116446        1.7662220736        2.3636797091
 H         -9.5600420379        1.1528390861        0.5637406365
 H         -8.7867374947       -0.1855386160       -1.3586805878
 H         -6.3974926008       -0.9141350962       -1.4654444026
 H         -4.1778807605        1.5058572460       -0.8659394438
 H         -2.6558430636        2.4317143447       -2.3791932842
 H         -0.4009645736        2.3144769075       -3.3744875593
 H          1.2611264090        0.7183967187       -2.4938116861
 H          1.2638837293       -1.7090145025       -1.3158596220
 C          0.5729846879       -1.8411554895        0.7025310616
 C         -0.2916790451       -3.0494727327        0.5075957688
 C          1.1438601902       -3.2112216238        0.9056646193
 H          1.3678159229       -3.5324716602        1.9117895791
 H          1.8418861244       -3.5720392867        0.1643461853
 H         -1.0615040785       -3.2532212883        1.2372690774
 H         -0.5747151551       -3.3026679525       -0.5032314731
 H          0.4041653087       -1.2335525054        1.5854775680
