  62
        -98.94133216
 C          2.4918521490        0.3107532351        0.6163165593
 C          2.3838599374       -0.3479157575       -0.6346034887
 C          2.2516716894       -1.8103386694       -0.5794642371
 C          2.1300973725       -2.4296368472        0.6068544068
 C          1.9785219798       -3.9105888697        0.8258732052
 C          0.5436340062       -4.4225972734        0.6401339157
 C          0.0654766208       -4.5163077881       -0.8095870933
 H          0.8110436166       -5.0449471922       -1.4049439222
 H         -0.8411335730       -5.1248201324       -0.8059004154
 C         -0.2568320388       -3.1652263492       -1.4622807240
 H         -0.4107196357       -2.4060536666       -0.6918296758
 H         -1.1966819967       -3.2478164383       -2.0140024728
 C          0.7952439602       -2.6613904446       -2.4501481011
 H          0.4955324495       -1.6644705617       -2.7831694224
 H          0.8244468415       -3.3182056685       -3.3234176926
 C          2.2134322481       -2.5596732704       -1.8779071562
 H          2.6378175790       -3.5554826355       -1.7478336160
 H          2.8276434558       -2.0075541742       -2.5942762223
 H          0.4953809973       -5.4208139581        1.0822017046
 H         -0.1330750398       -3.7742263346        1.2026575885
 H          2.6494778821       -4.4512173745        0.1570580376
 H          2.2841294701       -4.1040222111        1.8565110423
 O          2.1520967296       -1.7532065598        1.7872808428
 C          2.3253583892       -0.3798205945        1.8187504873
 O          2.3201781547        0.1056189599        2.9703327530
 O          2.4157174110        0.2341129933       -1.7490509702
 C          2.6004196633        1.8255423987        0.7195190301
 C          1.4998275073        2.4207114946       -0.1226389252
 C          1.7028494267        3.2346072010       -1.2274948906
 C          0.6234525077        3.6535002854       -1.9872543367
 C         -0.6641611046        3.2584992821       -1.6750852014
 C         -0.8770178977        2.4553625823       -0.5587872902
 C          0.1996445510        2.0692040150        0.2190093162
 H          0.0310368384        1.4439073712        1.0855921780
 N         -2.1706340757        2.0429243579       -0.1955849802
 S         -2.3412161132        0.5911173443        0.6497065671
 O         -2.1713708322        0.8639681603        2.0567442564
 O         -1.4972948155       -0.4372078362        0.0873737638
 C         -4.0559109627        0.2292660441        0.3201153415
 C         -4.3797244449       -0.7198596989       -0.6304299311
 C         -5.7165173647       -0.9733691580       -0.8961773327
 C         -6.7004605314       -0.2746497220       -0.2131662982
 C         -6.3598172834        0.6748479940        0.7391172274
 C         -5.0255753603        0.9316180501        1.0110781946
 H         -4.7115942558        1.6509915258        1.7492714051
 H         -7.1275263377        1.2138244525        1.2702903939
 H         -7.7396576224       -0.4735149833       -0.4220094184
 H         -5.9839938093       -1.7135389625       -1.6329028421
 H         -3.5788133039       -1.2411718977       -1.1302389544
 H         -2.8419913259        2.1300195182       -0.9459177144
 H         -1.4983479528        3.5620410648       -2.2890630303
 H          0.7913180251        4.2778076680       -2.8518570771
 H          2.7048670058        3.5097247988       -1.5131989516
 H          2.3707935476        2.0493865313        1.7751114850
 C          3.9784103553        2.4045629090        0.4466365628
 C          5.2133998203        1.6123303502        0.7550946673
 C          4.8630182545        1.9317126093       -0.6655931265
 H          5.4619119736        2.6666174063       -1.1837454988
 H          4.4937474072        1.1419510248       -1.2988190103
 H          6.0509784747        2.1199385590        1.2095107233
 H          5.0764197976        0.5971763356        1.0999506033
 H          4.0177068626        3.4644631389        0.6804731177
