  62
        -98.94135617
 C         -1.2245082011       -0.8041650666        0.4488571620
 C         -2.0958731662       -0.5825922805       -0.6425106973
 C         -3.0606730663        0.5207778019       -0.4910233784
 C         -3.0294415036        1.2798036430        0.6174708867
 C         -3.8794645168        2.4784884940        0.9586569171
 C         -5.3798283860        2.3970604091        0.6450791529
 C         -5.9958916716        0.9964756128        0.7767782640
 H         -5.2933370575        0.3245430736        1.2725268512
 H         -6.8865246248        1.0590020710        1.4047563523
 C         -6.4111912544        0.3982628092       -0.5694174323
 H         -7.1477510280       -0.3887999984       -0.3912341847
 H         -6.8997019132        1.1751785450       -1.1614606737
 C         -5.2795087199       -0.2187730143       -1.3904117715
 H         -4.9331251499       -1.1384571227       -0.9113537913
 H         -5.6849164473       -0.4981747481       -2.3657821406
 C         -4.0519973847        0.6813644183       -1.6074666336
 H         -3.5405817827        0.3420945206       -2.5126188095
 H         -4.3419224588        1.7205918656       -1.7433776740
 H         -5.8816132423        3.0819754162        1.3307415944
 H         -5.5620892236        2.7723033031       -0.3609680004
 H         -3.7373011360        2.6307648649        2.0314930656
 H         -3.4520294154        3.3498690926        0.4531053854
 O         -2.1349672592        1.0627133514        1.6235637886
 C         -1.2136847618        0.0324347923        1.5629118180
 O         -0.4495436357       -0.0353409645        2.5484883390
 O         -2.0692342907       -1.2654388649       -1.6994780457
 C         -0.1977043300       -1.9191583336        0.3892531304
 C          0.7923080101       -1.6600195855       -0.7215940853
 C          1.3069939218       -2.6565636220       -1.5413100034
 C          2.2396409327       -2.3457716505       -2.5161247402
 C          2.7012319550       -1.0514807448       -2.6754431777
 C          2.1967927436       -0.0490895718       -1.8551089922
 C          1.2442193171       -0.3599685837       -0.8990461437
 H          0.8373951319        0.4331208276       -0.2906842917
 N          2.6399106061        1.2786343317       -1.9603155007
 S          2.8233386135        2.1760801887       -0.5592083637
 O          1.5414271883        2.6269204697       -0.0770724603
 O          3.7570360165        3.2201537633       -0.9268842678
 C          3.5981819678        1.0564880349        0.5945727382
 C          4.9054811394        0.6925147516        0.3308312035
 C          5.5343347706       -0.2149644406        1.1661498707
 C          4.8461560116       -0.7475573727        2.2462133163
 C          3.5383346865       -0.3676877581        2.5010662671
 C          2.9034355680        0.5432807833        1.6701942108
 H          1.8829616117        0.8438819134        1.8523330448
 H          2.9942646218       -0.7751773648        3.3384996251
 H          5.3309726089       -1.4598501430        2.8949450738
 H          6.5538483722       -0.5067390755        0.9725104129
 H          5.4094729071        1.1374864836       -0.5117368894
 H          3.4023159702        1.4252307812       -2.6054165383
 H          3.4354879760       -0.8148268656       -3.4298789350
 H          2.6225084666       -3.1267723296       -3.1551000448
 H          0.9726114356       -3.6740096987       -1.4224456678
 H          0.3561988837       -1.8690808554        1.3393120272
 C         -0.8769916367       -3.2693372837        0.2922227049
 C         -0.2410802121       -4.4803649849        0.9039974482
 C         -1.4582140313       -3.8745359937        1.5336586957
 H         -2.3976037125       -4.4016092351        1.4599849767
 H         -1.3394733472       -3.3233865494        2.4556373193
 H         -0.3472324973       -5.4289059980        0.3995537681
 H          0.7052108071       -4.3489777132        1.4065151980
 H         -1.4324808541       -3.3895896878       -0.6304196316
