  62
        -98.94181958
 C          1.7387372700        1.1483021704        0.6474496659
 C          1.8680616587       -0.2349418884        0.9447563375
 C          3.1904748810       -0.8277385439        0.7231776874
 C          4.1998861507       -0.0544070990        0.2845223929
 C          5.6174383028       -0.4978665733        0.0436490937
 C          5.8467241781       -1.1407549887       -1.3309520236
 C          5.2556846366       -2.5409467444       -1.4999137623
 H          5.6732322580       -2.9555979080       -2.4196353365
 H          5.5874005577       -3.1752709307       -0.6773278063
 C          3.7236492366       -2.5739788632       -1.5941587674
 H          3.4242839146       -3.2211772370       -2.4216087692
 H          3.3508617828       -1.5724720841       -1.8218370339
 C          3.0206757211       -3.0895973078       -0.3381319357
 H          3.2823003161       -4.1376799059       -0.1768843713
 H          1.9416581173       -3.0308888774       -0.5019346529
 C          3.3486698173       -2.3026854847        0.9375871661
 H          2.6435995443       -2.6022054546        1.7165659727
 H          4.3601721247       -2.5321529004        1.2722900992
 H          6.9265223232       -1.2038039119       -1.4848675327
 H          5.4401059088       -0.4782267511       -2.0986148981
 H          5.9213943100       -1.1928289744        0.8269993122
 H          6.2389255327        0.3975971334        0.1126252790
 O          4.0410184589        1.2680136698        0.0212913162
 C          2.8099836588        1.8966449823        0.1597768120
 O          2.8309461144        3.0974032988       -0.1757356904
 O          0.9204822323       -0.9374597589        1.3859344171
 C          0.3625425573        1.7539326305        0.8602755405
 C         -0.4220257988        1.7694322491       -0.4297574419
 C         -0.0529776592        2.5765184856       -1.5008967932
 C         -0.7993615034        2.5710452269       -2.6648295641
 C         -1.9287816767        1.7786539756       -2.7780243367
 C         -2.3013060000        0.9633785207       -1.7157994575
 C         -1.5399750007        0.9582975102       -0.5554590699
 H         -1.8226963754        0.3137404104        0.2623109510
 N         -3.4232270545        0.1303925579       -1.8075028311
 S         -4.3650398541       -0.1900643319       -0.4632620963
 O         -5.6248171117       -0.6452711753       -1.0118079859
 O         -4.4353229141        0.9489827829        0.4220912724
 C         -3.5539661370       -1.5560710066        0.3380364892
 C         -3.3009114784       -1.5011041566        1.6938950124
 C         -2.6822628048       -2.5794780246        2.3054105238
 C         -2.3311280965       -3.6893469603        1.5536597199
 C         -2.5966831092       -3.7312959242        0.1934243729
 C         -3.2156487727       -2.6565818542       -0.4236159165
 H         -3.4380150307       -2.6532653623       -1.4777943353
 H         -2.3195318089       -4.5966339054       -0.3870777852
 H         -1.8439122134       -4.5246763013        2.0313705544
 H         -2.4706353878       -2.5465131965        3.3621761164
 H         -3.5821800821       -0.6141903777        2.2403277024
 H         -3.9736461628        0.2369928354       -2.6466576144
 H         -2.5158010731        1.7866694187       -3.6839530992
 H         -0.5044239174        3.1992973240       -3.4919738786
 H          0.8279430976        3.1941271219       -1.4151332751
 H         -0.1498093169        1.0629981068        1.5440323784
 C          0.3761365483        3.1287812730        1.4981513597
 C         -0.8968996638        3.6527105376        2.0905539822
 C          0.2363071367        3.2489423636        2.9844710640
 H          0.7928819882        4.0219669721        3.4927574873
 H          0.1364517152        2.3364430244        3.5540302647
 H         -1.1191926401        4.7035887344        1.9850688094
 H         -1.7686770455        3.0159141817        2.0463769239
 H          1.0282455408        3.8337598837        1.0000560556
