  62
        -98.93945796
 C         -1.7880141903       -0.9343894306       -0.3052828301
 C         -3.1445878003       -1.2383982706       -0.0469459201
 C         -4.1285512702       -0.2117854106       -0.4286485503
 C         -3.7016798902        0.9344316293       -0.9864001604
 C         -4.5218653201        2.0975437193       -1.4864067105
 C         -5.7092654102        2.5519065794       -0.6268456207
 C         -5.5114927703        2.3967128095        0.8881343994
 H         -4.4672936003        2.1680903995        1.1079129395
 H         -5.7472851603        3.3443898696        1.3758008093
 C         -6.4090910903        1.3183436396        1.4996919494
 H         -6.4991318004        1.5025603797        2.5729836294
 H         -7.4084981103        1.4081098096        1.0683637194
 C         -5.9177539403       -0.1183394504        1.3269781896
 H         -6.6974023004       -0.7878565104        1.6982774896
 H         -5.0325407604       -0.2848408704        1.9467472297
 C         -5.5621628003       -0.5278088406       -0.1115798003
 H         -6.2425181702       -0.0764467906       -0.8295866404
 H         -5.6529875403       -1.6152365706       -0.1824450802
 H         -6.6047012802        2.0085622394       -0.9252424707
 H         -5.8864289302        3.6020939794       -0.8650636308
 H         -3.8110444001        2.9205387593       -1.5923574306
 H         -4.8807459801        1.8522862492       -2.4903339405
 O         -2.3809662302        1.1867204893       -1.2136483203
 C         -1.3954712102        0.2689131293       -0.8870786702
 O         -0.2378207702        0.6394620193       -1.1566484401
 O         -3.5192528203       -2.3226208705        0.4747917200
 C         -0.7232978503       -1.9577619606        0.0422108501
 C          0.3167174997       -1.3504973005        0.9497361701
 C         -0.0984043504       -0.6807205104        2.0989016300
 C          0.8208742596       -0.1110301204        2.9572735000
 C          2.1763433296       -0.1904030504        2.6859142301
 C          2.6023594396       -0.8629358305        1.5481411302
 C          1.6750982197       -1.4481057306        0.6947192902
 H          2.0374391797       -1.9607268307       -0.1798800797
 N          3.9738071596       -0.9884929406        1.2595841903
 S          4.5777238697       -0.5123058307       -0.2271052197
 O          3.9440322198       -1.2613233508       -1.2802218297
 O          6.0104695197       -0.6711725507       -0.1033796496
 C          4.1865875798        1.2239476793       -0.3504818399
 C          2.8963945698        1.6140628693       -0.6485323600
 C          2.6044934698        2.9692959793       -0.6851212802
 C          3.5949091298        3.9037472393       -0.4268986002
 C          4.8860683498        3.4936435693       -0.1289775801
 C          5.1850239598        2.1421136893       -0.0847359899
 H          6.1743996398        1.7768423593        0.1390455702
 H          5.6565967398        4.2211264593        0.0697499699
 H          3.3585721198        4.9557950093       -0.4593853203
 H          1.5955187498        3.2723931793       -0.9162462403
 H          2.1293199598        0.8829200693       -0.8496077000
 H          4.5771860296       -0.6381180105        1.9906450903
 H          2.8967433595        0.2600415297        3.3518474201
 H          0.4815953395        0.4057792597        3.8423126599
 H         -1.1576875704       -0.6117658004        2.3069240799
 H         -1.2473385303       -2.7490462706        0.5992810602
 C         -0.1465338202       -2.5593324908       -1.2223057798
 C          0.3961311898       -3.9560470408       -1.2151014796
 C         -0.8958450402       -3.6573467408       -1.9129902097
 H         -0.9158790401       -3.6685110609       -2.9925081797
 H         -1.8149866202       -3.9928796608       -1.4550782498
 H          1.2691125398       -4.1698331008       -1.8136903295
 H          0.3553533697       -4.5030665207       -0.2852119996
 H          0.3505663198       -1.8258027508       -1.8487065198
