  62
        -98.94358111
 C          1.7472102568        1.1619363955        0.3981032722
 C          2.6970033735        0.9870158979       -0.6378804799
 C          3.9669179677        0.3586228100       -0.2414121706
 C          4.1458606413       -0.0280474711        1.0343576070
 C          5.3680891144       -0.7235131039        1.5582823931
 C          5.2209200317       -2.2490983612        1.4725103098
 C          4.7503352930       -2.7486981664        0.1064185239
 H          4.7128766442       -3.8392696616        0.1542922921
 H          3.7294304648       -2.4010796511       -0.0695965135
 C          5.6406127507       -2.3187061132       -1.0678944656
 H          6.6172213398       -2.0054072524       -0.6969637140
 H          5.8024030986       -3.1811760319       -1.7179062549
 C          5.0491912950       -1.2090820685       -1.9393000393
 H          5.6478868623       -1.1385834409       -2.8513068818
 H          4.0322633789       -1.4786570983       -2.2360183062
 C          5.0125375152        0.1879915848       -1.3072261586
 H          4.7552048868        0.9009200001       -2.0959365126
 H          6.0015725649        0.4435652951       -0.9216212352
 H          6.1832620420       -2.7030696115        1.7158846539
 H          4.4946811042       -2.5703522029        2.2229066404
 H          5.5044145511       -0.4391022265        2.6030759097
 H          6.2362438430       -0.3994307087        0.9877586722
 O          3.1977011190        0.1273624270        1.9938027204
 C          1.9763874277        0.7065899291        1.6977504496
 O          1.1857194288        0.7586289535        2.6629248866
 O          2.5085489000        1.3378689653       -1.8307112210
 C          0.3931344951        1.7978086838        0.1252472652
 C         -0.4401315068        0.8289605554       -0.6772380271
 C         -0.7339221866        0.9910513363       -2.0240575543
 C         -1.5021209914        0.0508820290       -2.6907505701
 C         -2.0058677794       -1.0538332731       -2.0284240090
 C         -1.7185579705       -1.2214943832       -0.6799034159
 C         -0.9368999939       -0.2891396106       -0.0178067936
 H         -0.7076083685       -0.4216561984        1.0325172210
 N         -2.2931104238       -2.3103144977        0.0183406336
 S         -3.9663828879       -2.1875933214        0.1436149509
 O         -4.3359030123       -2.9613245524        1.3074553780
 O         -4.5602905653       -2.5948197087       -1.1040335276
 C         -4.2419984190       -0.4457464181        0.4146578905
 C         -4.5931550928        0.3620172505       -0.6480435021
 C         -4.6754723371        1.7306175779       -0.4490460098
 C         -4.4033803190        2.2648168139        0.8008143909
 C         -4.0601707105        1.4393612688        1.8606397752
 C         -3.9719509032        0.0705882838        1.6663050247
 H         -3.7048392076       -0.6018111143        2.4663697642
 H         -3.8490379784        1.8566587311        2.8323935990
 H         -4.4598207899        3.3315947587        0.9520094796
 H         -4.9419708165        2.3760233816       -1.2702011824
 H         -4.7934189405       -0.0934464428       -1.6036267887
 H         -1.9018607460       -2.4255171941        0.9433964249
 H         -2.6279112850       -1.7811593999       -2.5248629772
 H         -1.7172234666        0.1849706524       -3.7398030873
 H         -0.3507082568        1.8469594035       -2.5536475696
 H         -0.0860838455        1.9057272429        1.1081748931
 C          0.5131501760        3.1681621928       -0.5046178255
 C         -0.6826308162        4.0713397511       -0.4982762439
 C          0.4933721906        4.3779728571        0.3782082570
 H          1.1270339386        5.2131089241        0.1197816743
 H          0.3955554685        4.2192581512        1.4424073137
 H         -0.8598390250        4.6998858166       -1.3572219592
 H         -1.5809648631        3.6973379440       -0.0303387058
 H          1.1689718734        3.1906511951       -1.3654454941
