  62
        -98.94660902
 C         -2.4910703408       -0.3501123388       -0.0307455799
 C         -2.2882418409       -1.4895130941       -0.8427357745
 C         -1.6129795519       -2.6207173017       -0.2000292155
 C         -1.2354138629       -2.5260700020        1.0880253683
 C         -0.5090326223       -3.5829782175        1.8747929119
 C          1.0101290497       -3.5645590466        1.6529693157
 C          1.4772653678       -4.1381539000        0.3140604277
 H          2.5546459110       -4.2962643253        0.3939330764
 H          1.0136943561       -5.1126096614        0.1536078227
 C          1.2040668262       -3.2256946431       -0.8894765242
 H          1.0199354665       -2.2096801305       -0.5327325600
 H          2.0938520977       -3.1896921026       -1.5230789668
 C          0.0393574798       -3.6685076902       -1.7755467186
 H          0.2828997525       -4.6213273603       -2.2519536570
 H         -0.0945657238       -2.9218203955       -2.5625232105
 C         -1.2977758356       -3.8223627810       -1.0402587652
 H         -2.0893396059       -3.9185474790       -1.7880397384
 H         -1.2870564080       -4.7214647623       -0.4244874599
 H          1.3593096350       -2.5324211014        1.7456662534
 H          1.4659960342       -4.1481720967        2.4566473997
 H         -0.7074418804       -3.3775098771        2.9290009124
 H         -0.9064264240       -4.5688672050        1.6304217554
 O         -1.4930041718       -1.4308732524        1.8507289743
 C         -2.0831065034       -0.3048634867        1.3029751828
 O         -2.2124873321        0.6483314427        2.0981546000
 H         -0.4302369153        0.7676629234       -0.8942090866
 C         -0.7415539432        1.7655892661       -0.6255490612
 C         -2.0950391698        2.0428591846       -0.4785713057
 C         -2.4737164485        3.3409094195       -0.1627024459
 C         -1.5149656040        4.3180801342        0.0452097461
 C         -0.1678014454        4.0151869047       -0.0238355862
 C          0.2208209386        2.7226027306       -0.3562723998
 N          1.5852164722        2.3578962781       -0.4283050362
 S          2.0998706863        1.1166224475        0.6051779617
 O          1.2727523021       -0.0475015191        0.4416888605
 O          2.2285599614        1.6414862580        1.9504858442
 C          3.7202893349        0.8066261766       -0.0696745022
 C          3.8289145434       -0.0384742119       -1.1567558806
 C          5.0795612183       -0.2617223296       -1.7101771724
 C          6.1944423546        0.3635289076       -1.1717870523
 C          6.0699832884        1.2086839395       -0.0795910138
 C          4.8215881307        1.4353472755        0.4784560143
 H          4.6793878085        2.0737677949        1.3354754363
 H          6.9388236984        1.6905879054        0.3388768333
 H          7.1665297249        0.1882059860       -1.6048156338
 H          5.1790926978       -0.9207436215       -2.5576196576
 H          2.9359415132       -0.5080483326       -1.5363193750
 H          2.1865236550        3.1551463235       -0.2557750688
 H          0.5783829732        4.7680003007        0.1837195963
 H         -1.8218229666        5.3229787986        0.2935629927
 H         -3.5189250688        3.5854646499       -0.0636250067
 C         -3.0741535285        0.9065441547       -0.6512574189
 H         -3.1781063014        0.6864798619       -1.7246527655
 C         -4.4443386131        1.2050723749       -0.0792235414
 C         -5.4890617920        1.8773325094       -0.9181506489
 C         -5.6213430752        0.4239894823       -0.5792285794
 H         -6.3785109030        0.1231210414        0.1290965004
 H         -5.4354663390       -0.3038053473       -1.3554634421
 H         -6.1612597882        2.5753009337       -0.4421194273
 H         -5.2251255807        2.1373506589       -1.9320482205
 H         -4.4074925921        1.4342968800        0.9802608331
 O         -2.6462499322       -1.5528770437       -2.0512491165
