  62
        -98.94061479
 C         -1.3431874912       -1.2111001076       -0.1658990942
 C         -2.4814740498       -1.2115959249        0.6760632903
 C         -3.2646301250        0.0336808227        0.7323815410
 C         -2.8617387064        1.0986930202        0.0142355384
 C         -3.4207658187        2.5037307775       -0.0692882223
 C         -4.8465487897        2.8069468078        0.3860776147
 C         -5.9435598632        2.1340021875       -0.4369429660
 H         -6.9054177629        2.3661569419        0.0258546990
 H         -5.9447870398        2.5674867248       -1.4402114745
 C         -5.8191943847        0.6197727192       -0.5879941125
 H         -6.6791827597        0.2703723772       -1.1659312456
 H         -4.9255281339        0.3804554988       -1.1679570928
 C         -5.7877473152       -0.1689613623        0.7203091164
 H         -6.6506983170        0.0997776787        1.3325697392
 H         -5.8766585162       -1.2284419201        0.4654089288
 C         -4.5120485563       -0.0034736887        1.5666813481
 H         -4.5718235246        0.8731205524        2.2075376169
 H         -4.4223820027       -0.8784871321        2.2168419778
 H         -4.9791932138        3.8881205319        0.2898499311
 H         -4.9664616490        2.5687097755        1.4388312329
 H         -2.7377947302        3.1331406196        0.5119379641
 H         -3.3095267223        2.8040353432       -1.1156415788
 O         -1.7486711769        1.0560693340       -0.7720020576
 C         -0.9678388638       -0.0811906756       -0.8917679478
 O         -0.0011534440        0.0496989066       -1.6651016678
 H          1.8654962855       -1.5895017003       -1.3124317033
 C          1.9095844275       -1.6715330601       -0.2383638561
 C          0.8125215268       -2.1460890424        0.4645263794
 C          0.8918003173       -2.2192699670        1.8523920051
 C          2.0381212654       -1.8253556012        2.5175134030
 C          3.1233961300       -1.3309508973        1.8141965981
 C          3.0477562502       -1.2438048628        0.4307737867
 N          4.1323653570       -0.6991174605       -0.2923852105
 S          4.4959740161        0.9050673938        0.0279248947
 O          5.4136562622        1.3060062398       -1.0144913259
 O          4.9884492959        1.0061402064        1.3791316129
 C          2.9630205693        1.8031702508       -0.1277777712
 C          2.0962631469        1.8513084253        0.9451666595
 C          0.8921805979        2.5205031138        0.8007934538
 C          0.5781957190        3.1281017310       -0.4042085732
 C          1.4576032827        3.0665534604       -1.4727139032
 C          2.6597024192        2.3933693860       -1.3374390154
 H          3.3715686694        2.3222895771       -2.1443783380
 H          1.2037442328        3.5305627364       -2.4122216499
 H         -0.3628865830        3.6429640703       -0.5163166189
 H          0.1993671396        2.5564431734        1.6274332359
 H          2.3740058569        1.3720482084        1.8700779635
 H          4.0233267487       -0.8089630044       -1.2915434913
 H          4.0138423469       -0.9884886235        2.3160535042
 H          2.0864126624       -1.8946623296        3.5938381425
 H          0.0337339981       -2.5746889887        2.4056238808
 C         -0.4910154367       -2.4690350186       -0.2202438492
 H         -1.0257752252       -3.2123974741        0.3853256979
 C         -0.3354736166       -3.0053398516       -1.6270986295
 C          0.1871968633       -4.3958993873       -1.8256975434
 C         -1.2532410727       -4.0897668093       -2.1026424505
 H         -1.5884359877       -4.0670691263       -3.1288164802
 H         -1.9964250240       -4.4562634677       -1.4097886087
 H          0.8427271779       -4.5875391303       -2.6614374704
 H          0.4231271035       -4.9693320934       -0.9419989167
 H         -0.0530056430       -2.2493767407       -2.3492879253
 O         -2.8279652613       -2.2109337624        1.3610398897
