  62
        -98.94053271
 C         -2.3725162698       -0.7387585010       -0.1023318950
 C         -3.5362045166       -1.0395137540        0.6450650173
 C         -4.8037624184       -0.5833711576        0.0646871865
 C         -4.8026639043        0.0583538367       -1.1181558572
 C         -6.0162120138        0.5616023374       -1.8520457256
 C         -6.5028277089        1.9400958925       -1.3841010168
 C         -7.1842591404        1.9594284991       -0.0152612426
 H         -7.6645583845        2.9342640267        0.0896933596
 H         -7.9708887442        1.2047313016        0.0084845869
 C         -6.2308635049        1.7494273728        1.1693604244
 H         -5.2022569816        1.9210182003        0.8434463724
 H         -6.4471178345        2.4860270519        1.9464711982
 C         -6.3203643933        0.3677975481        1.8175103507
 H         -5.5791484738        0.3160688085        2.6192075019
 H         -7.3083402621        0.2354547199        2.2639529280
 C         -6.0589455409       -0.7986902798        0.8555753522
 H         -5.9264048254       -1.7079946593        1.4469101190
 H         -6.9103071256       -0.9352881667        0.1892875639
 H         -5.6528656262        2.6263387263       -1.3782122867
 H         -7.2173536481        2.3021874568       -2.1268661533
 H         -5.7330707268        0.6354237765       -2.9041757044
 H         -6.8262328731       -0.1624119972       -1.7598258569
 O         -3.6621837425        0.3135141322       -1.8138858550
 C         -2.4205114205       -0.0593623450       -1.3193680130
 O         -1.4615400150        0.2619794011       -2.0466938788
 O         -3.5155033131       -1.6573369154        1.7436204494
 C         -1.0227572835       -1.1731003733        0.4360074637
 C         -0.1096681791        0.0145627160        0.6148319859
 C         -0.5915576958        1.1471693881        1.2673543907
 C          0.2187097891        2.2477236716        1.4651512726
 C          1.5342371781        2.2374975095        1.0350938111
 C          2.0265354170        1.1120986015        0.3864641895
 C          1.2049875371        0.0121816563        0.1781569646
 H          1.6153513754       -0.8447982981       -0.3287024797
 N          3.3510026085        1.0738027688       -0.0782823128
 S          4.1794157672       -0.3963587432       -0.0194991430
 O          3.8631456985       -1.1633142419       -1.1978980926
 O          3.9439519337       -1.0468728402        1.2497156140
 C          5.8649137720        0.1801286415       -0.1132580548
 C          6.6006839938        0.3160817768        1.0488784444
 C          7.9005569837        0.7904029699        0.9679033417
 C          8.4386349547        1.1217262610       -0.2665019383
 C          7.6881548638        0.9793350971       -1.4243699794
 C          6.3883571856        0.5044196568       -1.3508008492
 H          5.7707045445        0.3685660173       -2.2233905744
 H          8.1110164723        1.2350280073       -2.3825168547
 H          9.4504210695        1.4903428614       -0.3272261088
 H          8.4875880684        0.8988590238        1.8656291531
 H          6.1436157581        0.0376019034        1.9847983599
 H          3.9144218131        1.8360318126        0.2729597788
 H          2.1697863109        3.0953608557        1.1941431513
 H         -0.1730133327        3.1194375081        1.9678142075
 H         -1.6158230979        1.1514585052        1.6155850881
 H         -1.2263241345       -1.5960535763        1.4320803743
 C         -0.4325875006       -2.2599100229       -0.4376227023
 C          0.5192048500       -3.2620873789        0.1416235391
 C         -0.8693309268       -3.6788846525       -0.2372794188
 H         -1.0017011501       -4.3053874452       -1.1064963592
 H         -1.5790615103       -3.8712135875        0.5540607300
 H          1.3475755334       -3.5946617395       -0.4666456201
 H          0.7599062068       -3.1743982009        1.1907324319
 H         -0.2618879301       -1.9273021889       -1.4562502195
