  62
        -98.94847573
 C          0.8377564597        1.2185626093        0.5678275904
 C          1.2107726993        0.5341648908       -0.6136492090
 C          2.1501233818       -0.5792270961       -0.4276612853
 C          2.4803972857       -0.9726269894        0.8151822348
 C          3.4211014676       -2.0927815644        1.1683449227
 C          4.8970646440       -1.6710101720        1.1911094936
 C          5.5191869473       -1.4230845852       -0.1838703134
 H          6.5985658752       -1.3484929315       -0.0373799160
 H          5.3368174479       -2.2864596854       -0.8242758723
 C          5.0267421350       -0.1476927711       -0.8823880740
 H          4.5500985108        0.5080719511       -0.1499329371
 H          5.8820825369        0.3970961630       -1.2884725796
 C          4.0544783067       -0.3901685566       -2.0373755439
 H          4.5647639646       -0.9332146836       -2.8356987779
 H          3.7476426968        0.5811119562       -2.4332207737
 C          2.7883715210       -1.1669397514       -1.6492909540
 H          2.0698442123       -1.0847315648       -2.4674247067
 H          3.0288627340       -2.2170138157       -1.4904427353
 H          4.9944826879       -0.7719429982        1.8042045262
 H          5.4579770577       -2.4695312896        1.6823825591
 H          3.1428097708       -2.4325130867        2.1684217538
 H          3.2953821399       -2.9196318166        0.4693475356
 O          1.9714282720       -0.3821278386        1.9313638192
 C          1.1974496345        0.7638059791        1.8355081395
 O          0.8900873134        1.2716458882        2.9344811751
 O          0.8037251602        0.8471945578       -1.7610853339
 C          0.0234582488        2.4957393968        0.4755264599
 C         -1.3028393281        2.2362000508       -0.1940886387
 C         -1.8024278676        3.0121504391       -1.2319836065
 C         -3.0394247583        2.7286864094       -1.7841049407
 C         -3.8013627879        1.6755787449       -1.3139639636
 C         -3.3144015640        0.9002468944       -0.2668033395
 C         -2.0741389220        1.1827339009        0.2818153745
 H         -1.7061813665        0.5823954633        1.1020448206
 N         -4.0759532270       -0.1572418053        0.2505416054
 S         -3.3508382120       -1.4954767152        0.9185635698
 O         -4.3892446040       -2.5057165894        0.8948245643
 O         -2.8161689766       -1.1887717235        2.2222698525
 C         -2.0431979063       -1.9991873556       -0.1849391976
 C         -2.2340962204       -1.9344840817       -1.5505724605
 C         -1.2502355933       -2.4317212813       -2.3891233284
 C         -0.1073860193       -3.0018778548       -1.8523870413
 C          0.0710703727       -3.0569455901       -0.4795824765
 C         -0.9015457785       -2.5454985750        0.3633553010
 H         -0.7945653435       -2.5559606707        1.4372181123
 H          0.9588088628       -3.4993075233       -0.0580918178
 H          0.6489203125       -3.4049152226       -2.5067945043
 H         -1.3807774106       -2.3778063693       -3.4578241947
 H         -3.1373140722       -1.5011454954       -1.9476117849
 H         -4.9161596553       -0.3846109731       -0.2597228039
 H         -4.7667335571        1.4560521232       -1.7434238804
 H         -3.4143369720        3.3356608331       -2.5939147417
 H         -1.2233558596        3.8374588561       -1.6113345237
 H         -0.1806942044        2.8004916314        1.5129635473
 C          0.8447015970        3.5760116644       -0.1990324333
 C          0.6169959054        5.0187563098        0.1343334624
 C          1.8572028340        4.3259013878        0.6113369054
 H          2.8011630748        4.5796224968        0.1526079474
 H          1.9354659749        4.0763959963        1.6600035408
 H          0.7128142328        5.7524545240       -0.6517305178
 H         -0.1453576674        5.2489658923        0.8632639347
 H          1.1124873395        3.3201610691       -1.2177100413
