  62
        -98.94758645
 C         -2.5286256961       -0.2889329486        0.0109916308
 C         -2.2221655156       -1.3013338512       -0.9280147221
 C         -1.5836917065       -2.5088713604       -0.3905853218
 C         -1.3502477855       -2.5951446050        0.9316570281
 C         -0.7061094651       -3.7672042919        1.6144220413
 C          0.8110840651       -3.5874491119        1.7491816815
 C          1.5125132545       -3.1974178902        0.4478994101
 H          1.2224560334       -2.1792935517        0.1771234105
 H          2.5853470426       -3.1713951989        0.6553816768
 C          1.2457012820       -4.1355066266       -0.7369530220
 H          0.8852602128       -5.0997332778       -0.3753531303
 H          2.1898274917       -4.3126876358       -1.2561307860
 C          0.2676962868       -3.5793905854       -1.7741847686
 H          0.3588812376       -4.1776491094       -2.6850992051
 H          0.5529497444       -2.5530623846       -2.0232155074
 C         -1.2119532441       -3.5883904048       -1.3672679734
 H         -1.8072547837       -3.3961077772       -2.2648833212
 H         -1.4824845713       -4.5732044254       -0.9796213403
 H          1.2341923420       -4.5199922642        2.1287234334
 H          1.0024187732       -2.7983325054        2.4801041107
 H         -0.9263457198       -4.6714669963        1.0497252271
 H         -1.1394964654       -3.8576889705        2.6123859963
 O         -1.6726823301       -1.6087745549        1.8068040510
 C         -2.2182996463       -0.4138149879        1.3651795577
 O         -2.4036791419        0.4296847072        2.2641702594
 O         -2.4787978750       -1.2004908888       -2.1601360143
 C         -3.0920796240        1.0304843899       -0.4889646379
 C         -2.0683833397        2.1122074171       -0.2411460401
 C         -2.3617187241        3.3586937853        0.2955468090
 C         -1.3459143880        4.2667102754        0.5448516657
 C         -0.0248519741        3.9470066589        0.2897844965
 C          0.2753330175        2.7081457865       -0.2655682778
 C         -0.7469341642        1.8215872979       -0.5533500353
 H         -0.5019826480        0.8651249922       -0.9917888050
 N          1.5998212179        2.3220133378       -0.5453261773
 S          1.9650452871        0.6921376457       -0.2568047244
 O          1.6272409830       -0.0697896071       -1.4331818840
 O          1.3723763442        0.2660664692        0.9899061919
 C          3.7394411421        0.7770655994       -0.1008363058
 C          4.5062709487        0.8157698572       -1.2500325886
 C          5.8837022554        0.9134000755       -1.1328775689
 C          6.4679561570        0.9702191583        0.1238923609
 C          5.6856183444        0.9277138341        1.2681706319
 C          4.3070979038        0.8320620977        1.1578703810
 H          3.6577905744        0.7866534267        2.0177764171
 H          6.1421634755        0.9679302945        2.2439852365
 H          7.5402102942        1.0450112169        0.2124084224
 H          6.4951485898        0.9435860273       -2.0201499833
 H          4.0067906337        0.7580929732       -2.2030169989
 H          2.2818822141        2.9333806596       -0.1164056665
 H          0.7665896558        4.6444248645        0.5188713294
 H         -1.5857766174        5.2305017522        0.9679564923
 H         -3.3815725854        3.6134782362        0.5335636624
 H         -3.2065027758        0.9061169992       -1.5767444313
 C         -4.4473457193        1.3211537645        0.1176568129
 C         -5.4487527712        2.1452381804       -0.6338170132
 C         -5.6601770452        0.6705435107       -0.4749576794
 H         -6.4371985920        0.3267673523        0.1909390764
 H         -5.5093739793        0.0345564213       -1.3351528166
 H         -6.0862705760        2.8152122812       -0.0770392054
 H         -5.1628856872        2.5127441882       -1.6077592668
 H         -4.4066709923        1.4166986208        1.1966889548
