  62
        -98.94477150
 C         -1.8472691377        0.4209248028        0.6241774883
 C         -2.8671255388        1.2768702293        0.1438134436
 C         -4.2383059495        0.7722471833        0.2737151200
 C         -4.4565216944       -0.4268954153        0.8438211460
 C         -5.7993936930       -1.0677504655        1.0683896166
 C         -6.3419918249       -1.8239800726       -0.1521565847
 C         -6.8304440968       -0.9406173284       -1.3009595803
 H         -7.3796876103       -1.5858476224       -1.9895209882
 H         -7.5343410129       -0.2022131461       -0.9158201013
 C         -5.7100905679       -0.2325830713       -2.0754871962
 H         -5.8862671117       -0.3379844237       -3.1483735454
 H         -4.7556870145       -0.7181661935       -1.8587883392
 C         -5.5834572122        1.2622809159       -1.7815911754
 H         -4.7385136768        1.6539744205       -2.3535899077
 H         -6.4852306130        1.7793104093       -2.1168423997
 C         -5.3496429042        1.5969086074       -0.3025455614
 H         -5.0559815415        2.6469470410       -0.2305701036
 H         -6.2674880460        1.4504342499        0.2662341734
 H         -5.5654496144       -2.5005441349       -0.5166797197
 H         -7.1806314439       -2.4348815702        0.1898346748
 H         -6.5200544898       -0.3108243857        1.3792539519
 H         -5.6698747040       -1.7810335749        1.8852319941
 O         -3.4490937092       -1.2107442193        1.3129810863
 C         -2.1220349188       -0.8200611892        1.1984647324
 O         -1.3043440696       -1.6485181955        1.6421755622
 O         -2.6413083154        2.4050073912       -0.3699858254
 C         -0.4009781379        0.8698396471        0.5137419100
 C          0.3886792306       -0.1284479566       -0.2946997312
 C         -0.1105954166       -0.5254742779       -1.5338691142
 C          0.5555029126       -1.4608799162       -2.2995008645
 C          1.7441613163       -2.0124392657       -1.8530972397
 C          2.2580554974       -1.6149632990       -0.6258672065
 C          1.5870973837       -0.6701019376        0.1413123492
 H          2.0034498310       -0.3936797314        1.0951545493
 N          3.4582558392       -2.1610077562       -0.1475360359
 S          4.5686700440       -1.1842611188        0.6250927976
 O          5.8282108614       -1.8812721756        0.4741939959
 O          4.1580015362       -0.9162514677        1.9797442934
 C          4.5914252653        0.3274766854       -0.3228241598
 C          4.8864236888        0.2516536917       -1.6701720661
 C          4.8898142896        1.4147112477       -2.4221663929
 C          4.6014532210        2.6290143602       -1.8176457873
 C          4.3152681570        2.6894278605       -0.4630314509
 C          4.3079685551        1.5280547541        0.2933999136
 H          4.0861187039        1.5298858458        1.3478997477
 H          4.0959808786        3.6347698840        0.0074499561
 H          4.6018790041        3.5337130663       -2.4049302823
 H          5.1154343819        1.3718479565       -3.4754960928
 H          5.1176718027       -0.7053675091       -2.1085296172
 H          3.9046225888       -2.8174211562       -0.7705150039
 H          2.2622498199       -2.7527546245       -2.4434699314
 H          0.1491659266       -1.7646045309       -3.2524477665
 H         -1.0407526096       -0.0966338801       -1.8811081850
 H         -0.4325451054        1.8180227440       -0.0436438880
 C          0.1683052632        1.1347003474        1.8909257824
 C          1.2376373659        2.1660472631        2.0832802255
 C         -0.1551182331        2.4320109539        2.5677531428
 H         -0.3449244314        2.4261049729        3.6306576448
 H         -0.7622837865        3.1374758076        2.0194961604
 H          2.0066479243        1.9739534138        2.8168218189
 H          1.5784147373        2.6978789820        1.2081105924
 H          0.1990192251        0.2441020614        2.5094306044
