  62
        -98.94070910
 C         -2.6213938456       -1.3067641945        0.2216614009
 C         -2.3525038495       -0.2608453718       -0.6982258192
 C         -3.3705448565        0.8005685732       -0.7793658653
 C         -4.4795995614        0.7209841201       -0.0240532840
 C         -5.5572553298        1.7631533651        0.0370814129
 C         -5.2734933042        2.7844806221        1.1478154153
 C         -3.8505295971        3.3436282928        1.1270981633
 H         -3.7765050023        4.0739492394        1.9357511740
 H         -3.1452211505        2.5408550335        1.3552367873
 C         -3.4473170762        4.0068808562       -0.1972810370
 H         -4.3386958525        4.2474018003       -0.7779913824
 H         -2.9390575454        4.9480958024        0.0224390766
 C         -2.4920777804        3.1781448341       -1.0585690880
 H         -1.6338887294        2.8602600056       -0.4595634354
 H         -2.1081326876        3.8206373427       -1.8559344452
 C         -3.1013572345        1.9377596327       -1.7241642036
 H         -4.0096101617        2.2170767438       -2.2623074628
 H         -2.3729827844        1.5621294649       -2.4492123039
 H         -5.9886548526        3.6036078462        1.0543569948
 H         -5.4353443424        2.2995759090        2.1131972319
 H         -5.6255046046        2.2661186525       -0.9254630214
 H         -6.5059567725        1.2660884019        0.2463112280
 O         -4.7184225180       -0.3111272106        0.8238513579
 C         -3.7903849285       -1.3244348239        0.9903938362
 O         -4.1179312828       -2.1769997079        1.8392959837
 H          0.5022008968       -2.0735258128       -1.1679414925
 C          0.6895888383       -1.6924730962       -0.1761903697
 C         -0.2849124601       -1.8175680124        0.8004098850
 C         -0.0376342294       -1.2909934866        2.0643128390
 C          1.1593725039       -0.6578018169        2.3422790059
 C          2.1244549176       -0.5200969412        1.3599104523
 C          1.8773291343       -1.0240623619        0.0903636889
 N          2.8415048857       -0.8622298928       -0.9197654023
 S          3.5253120193        0.6594348267       -1.1180278203
 O          2.6467505052        1.7177422210       -0.6782842661
 O          3.9513369250        0.7048244632       -2.5003676361
 C          4.9720945808        0.6018509255       -0.0783980224
 C          5.8629314928       -0.4387706220       -0.2549095222
 C          6.9985276176       -0.4895975315        0.5374844831
 C          7.2252219684        0.4969029192        1.4857437379
 C          6.3233680644        1.5370791158        1.6487596014
 C          5.1850161483        1.5930026370        0.8595407021
 H          4.4532119310        2.3797259551        0.9541707172
 H          6.5008410841        2.3037342111        2.3858877006
 H          8.1099733032        0.4552274437        2.1011931868
 H          7.7023630552       -1.2967706308        0.4136529675
 H          5.6514857491       -1.1828087965       -1.0044897801
 H          2.5430691381       -1.2281893328       -1.8129627275
 H          3.0514864831       -0.0088234310        1.5621678754
 H          1.3403721832       -0.2590960095        3.3290018462
 H         -0.8034729556       -1.3736436281        2.8236943244
 C         -1.6313943219       -2.4275796120        0.5038342087
 H         -2.0007286214       -2.9018563308        1.4267286016
 C         -1.5730632824       -3.5240756317       -0.5487957452
 C         -2.8387675391       -4.0543063350       -1.1524565273
 C         -1.8627451988       -3.2985860327       -2.0007008143
 H         -1.2814443769       -3.8511875954       -2.7250246227
 H         -2.1190951329       -2.3014113349       -2.3206370669
 H         -2.9363893969       -5.1192672764       -1.2992697282
 H         -3.7605508506       -3.5634942806       -0.8749295321
 H         -0.8048631887       -4.2561415877       -0.3175428177
 O         -1.3297669107       -0.1973119852       -1.4289426562
