  62
        -98.93861138
 C         -1.6671381259       -1.0226595355       -0.6663679359
 C         -1.6554667029        0.1129701156        0.1768193291
 C         -2.9371164615        0.4602205772        0.8212135501
 C         -4.0143206445       -0.3126346367        0.6004735218
 C         -5.4126005226       -0.1074787951        1.1143744106
 C         -6.2576434144        0.6756745881        0.0952397365
 C         -6.1690077372        2.1963074200        0.2180725734
 H         -6.7026065616        2.6226103406       -0.6344777618
 H         -6.6910548998        2.5140805835        1.1230840529
 C         -4.7496023953        2.7690915957        0.2457574434
 H         -4.1352511009        2.2664620047       -0.5032586789
 H         -4.8079598217        3.8220498089       -0.0365146132
 C         -4.0824596821        2.6618587163        1.6252112750
 H         -4.8371962996        2.4009753763        2.3669514575
 H         -3.6902153174        3.6390214925        1.9148844344
 C         -2.9106844078        1.6722881205        1.7121365765
 H         -1.9793683079        2.1862600323        1.4535204055
 H         -2.7990882110        1.3392638308        2.7498955021
 H         -5.9447190193        0.3677306055       -0.9056543924
 H         -7.3041614867        0.3875426799        0.2132792893
 H         -5.8476707045       -1.1017617431        1.2354918320
 H         -5.3998657193        0.3886748944        2.0802689373
 O         -3.9755750999       -1.4105417670       -0.2039392361
 C         -2.8154453706       -1.7947542308       -0.8479424949
 O         -2.9289861532       -2.8245045414       -1.5433035796
 H          2.0604481258       -0.4852830232       -0.6309732052
 C          1.7749469563       -1.3565462296       -0.0697387888
 C          0.5710600128       -1.9876387736       -0.3332917432
 C          0.2372039600       -3.1234530332        0.4013361755
 C          1.0901116122       -3.6107351533        1.3719707919
 C          2.2843204459       -2.9641335976        1.6449341985
 C          2.6227795473       -1.8267782301        0.9248468231
 N          3.8303577486       -1.1428098699        1.1614289583
 S          3.7312151580        0.4923588018        1.5592783412
 O          5.0132728949        0.7844644793        2.1685350097
 O          2.5720964541        0.7617409596        2.3771121490
 C          3.6356973146        1.3390618963       -0.0022618598
 C          4.7482923143        1.3071046107       -0.8202660357
 C          4.6983299428        1.9558531800       -2.0433671740
 C          3.5439474892        2.6250722944       -2.4221405913
 C          2.4384233880        2.6514007327       -1.5856917119
 C          2.4787832890        2.0026360173       -0.3607488973
 H          1.6260847110        1.9726471027        0.3003750288
 H          1.5381895151        3.1671289388       -1.8812797845
 H          3.5030522517        3.1286823107       -3.3753592205
 H          5.5552276581        1.9370568793       -2.6972981436
 H          5.6261115434        0.7822137988       -0.4820619824
 H          4.4392577507       -1.6100161706        1.8195607275
 H          2.9467654784       -3.3366625712        2.4122323507
 H          0.8213449941       -4.4959059951        1.9290484023
 H         -0.7030572857       -3.6178784952        0.1968915750
 C         -0.4022341860       -1.4846145911       -1.3724447115
 H         -0.7022656267       -2.3412079138       -1.9925123828
 C          0.1609228828       -0.4018475161       -2.2676440822
 C          1.1511304645       -0.7586183853       -3.3341236809
 C         -0.2423999476       -0.3547118475       -3.7091774628
 H         -0.3951426588        0.6095946333       -4.1696475010
 H         -0.9192496157       -1.1187663490       -4.0635090949
 H          1.9586063269       -0.0707934260       -3.5349981657
 H          1.4213070950       -1.7987952515       -3.4350132541
 H          0.2873124094        0.5442178224       -1.7566203100
 O         -0.6345594647        0.8213752396        0.3778649721
