  62
        -98.94625864
 C         -2.3839149700       -0.5484669994       -0.0112985797
 C         -1.3844772301       -0.7354609102        0.9711831703
 C         -0.6802972308       -2.0230948105        0.9439243200
 C         -1.0133456112       -2.9313268802        0.0091754198
 C         -0.2952649919       -4.2277955105       -0.2341504705
 C          1.0035741382       -3.9527515910       -1.0207418904
 C          2.2875846381       -4.2704811118       -0.2533639305
 H          2.4285399675       -5.3535841919       -0.2275673607
 H          3.1153334383       -3.8407607021       -0.8221770704
 C          2.3501655983       -3.7517421722        1.1866219796
 H          3.3958609683       -3.8008068928        1.4973917596
 H          1.7967572680       -4.4258056320        1.8425951995
 C          1.8383045591       -2.3216250719        1.4023995599
 H          2.4963697093       -1.8257022024        2.1194867801
 H          1.8921811294       -1.7510974118        0.4740397901
 C          0.4048911091       -2.2367780213        1.9619318600
 H          0.1855302786       -3.1311150813        2.5515836498
 H          0.3401347596       -1.3738017414        2.6306751001
 H          1.0105855688       -2.9012954309       -1.3196647902
 H          1.0022394379       -4.5382391108       -1.9421032305
 H         -0.0751461622       -4.7145412708        0.7134527294
 H         -0.9610641422       -4.8691318400       -0.8124148106
 O         -2.0058203411       -2.7313746594       -0.8969067102
 C         -2.6915777305       -1.5288186791       -0.9513115499
 O         -3.5413622805       -1.4574924584       -1.8642783399
 H         -0.8760214893        0.6721597101       -1.6231103994
 C         -0.9356136388        1.6142730200       -1.0977020592
 C         -2.0234463887        1.8757860104       -0.2740768492
 C         -2.0833599881        3.1046423103        0.3709426811
 C         -1.0611618976        4.0262427398        0.2191675613
 C          0.0492259023        3.7347966894       -0.5521475988
 C          0.1120776316        2.5126786995       -1.2119845790
 N          1.2257138014        2.1555486291       -1.9995783291
 S          2.0927908207        0.7850825686       -1.5764965594
 O          3.1645255807        0.7115848682       -2.5467507194
 O          1.2187609001       -0.3575655310       -1.5110745496
 C          2.7855577209        1.1563973378        0.0257300207
 C          1.9664404609        1.1697243780        1.1368272707
 C          2.5170531311        1.5072035575        2.3641128908
 C          3.8628984212        1.8240083168        2.4607777308
 C          4.6708674512        1.8072844166        1.3336543908
 C          4.1280218511        1.4751915871        0.1033384708
 H          4.7161052611        1.4458469570       -0.7997217792
 H          5.7182304514        2.0515273260        1.4092660409
 H          4.2833409414        2.0831727663        3.4197047209
 H          1.8803508411        1.5163725876        3.2343789608
 H          0.9227788408        0.9111691186        1.0497496206
 H          1.8728483818        2.9159629588       -2.1580876889
 H          0.8601913526        4.4414914490       -0.6441751986
 H         -1.1204298171        4.9766134797        0.7272257015
 H         -2.9267821480        3.3372424706        1.0003327111
 C         -3.0733895893        0.7996664110       -0.1238410894
 H         -3.6719439893        0.7634653415       -1.0461827994
 C         -3.9991085892        1.0247781712        1.0539394506
 C         -5.2440860887        1.8435552219        0.8948554208
 C         -5.3400094795        0.3567830519        1.0546149905
 H         -5.7177906797       -0.0415963681        1.9841907204
 H         -5.5946264098       -0.2387871178        0.1896438304
 H         -5.5612302684        2.4656606019        1.7182416809
 H         -5.4487020085        2.2605524822       -0.0797174291
 H         -3.4655000691        1.0771744507        1.9959022406
 O         -1.0827949796        0.1440533695        1.8220571905
