  62
        -98.94104043
 C          0.9994625365        1.4868746674       -0.0404780226
 C          1.7990931245        0.9577884425        0.9997474357
 C          2.5877281864       -0.2386408872        0.6680537355
 C          2.5060517439       -0.7536103933       -0.5722943942
 C          3.3004093092       -1.9208101741       -1.0857888973
 C          4.7448615969       -1.4797168479       -1.3974317773
 C          5.8072109314       -2.1293767502       -0.5109142710
 H          5.9598594493       -3.1605841373       -0.8359684060
 H          6.7430719922       -1.5903662002       -0.6724821746
 C          5.4990522054       -2.1527745191        0.9892252490
 H          4.8042369139       -2.9645571324        1.2103575069
 H          6.4322494538       -2.3940630400        1.5026338869
 C          4.9358992107       -0.8530052758        1.5783890284
 H          5.2260749336        0.0038624852        0.9699180561
 H          5.3799428468       -0.7070014678        2.5652498811
 C          3.4077630909       -0.8452300682        1.7725400376
 H          3.0558933875       -1.8627171898        1.9687512978
 H          3.1710609945       -0.2459283991        2.6571719359
 H          4.8003371186       -0.3938992060       -1.2964283552
 H          4.9798174830       -1.7114721073       -2.4372072909
 H          2.8091341225       -2.2779496390       -1.9909481968
 H          3.2927632444       -2.7208471868       -0.3486289387
 O          1.7285465089       -0.2144569290       -1.5464378533
 C          0.9388531744        0.9031062977       -1.3046680614
 O          0.2510557296        1.2627062957       -2.2768147858
 O          1.8493053878        1.4631344165        2.1545581229
 C          0.1301120574        2.6987977893        0.2417258048
 C         -1.3239664308        2.3209835414        0.0952917966
 C         -2.2198768759        3.0099857041       -0.7110738207
 C         -3.5391628854        2.6002390696       -0.7990140198
 C         -3.9892196341        1.5018624069       -0.0909050790
 C         -3.1034255976        0.8109997937        0.7295557512
 C         -1.7848941385        1.2268026379        0.8193559007
 H         -1.1055488016        0.6887615160        1.4652033344
 N         -3.5434251199       -0.2895461036        1.4872843056
 S         -2.6625925810       -1.7087451318        1.5165333950
 O         -3.5620420039       -2.6727271589        2.1126161796
 O         -1.4056787097       -1.5081901940        2.1906530228
 C         -2.3961980411       -2.1154200410       -0.1969153061
 C         -1.2187903638       -1.7326664103       -0.8041213398
 C         -1.0449468062       -1.9888073502       -2.1545992744
 C         -2.0487824628       -2.6232937078       -2.8694887803
 C         -3.2244799523       -3.0102592935       -2.2433138820
 C         -3.4055682684       -2.7498294091       -0.8950434871
 H         -4.2996736640       -3.0403594294       -0.3675263009
 H         -3.9995246051       -3.5084477381       -2.8031917249
 H         -1.9098965538       -2.8171120443       -3.9213596466
 H         -0.1343233629       -1.6711793416       -2.6375961119
 H         -0.4591358444       -1.2427777398       -0.2145896168
 H         -4.5268207941       -0.4943116389        1.3793291236
 H         -5.0176104014        1.1822675557       -0.1630086449
 H         -4.2245841438        3.1413182664       -1.4332429137
 H         -1.8853793612        3.8649114020       -1.2746126564
 H          0.3094955124        2.9455917886        1.2989254928
 C          0.5508099751        3.8758364733       -0.6121499529
 C          0.2885959991        5.2752070353       -0.1441113940
 C          1.6866131971        4.7361405543       -0.1486693610
 H          2.3835504843        5.1104849529       -0.8834257566
 H          2.1437670811        4.4866708039        0.7980299257
 H          0.0276337276        6.0241311230       -0.8764044507
 H         -0.2031906252        5.3989991737        0.8088663284
 H          0.4838894452        3.6676245620       -1.6737936808
