  62
        -98.93951465
 C          1.0620643217        1.2419010415        0.4934139622
 C          2.0185335076        1.0414753800       -0.5266493625
 C          3.1415187292        0.1380136912       -0.2090714558
 C          3.1627959793       -0.4875668862        0.9814923528
 C          4.1959838500       -1.4377561454        1.5332566411
 C          4.7239685014       -2.5183756790        0.5773124972
 C          6.1724107597       -2.2904479475        0.1403614759
 H          6.7396876955       -1.9253272382        0.9990574748
 H          6.6034744702       -3.2510004685       -0.1504227937
 C          6.3555615559       -1.3283021218       -1.0320296264
 H          6.0052364998       -1.8063830590       -1.9493859396
 H          7.4270440313       -1.1487151619       -1.1473309814
 C          5.6446149098        0.0186723044       -0.8888119711
 H          5.7375475200        0.3927373119        0.1301468187
 H          6.1513369931        0.7345296060       -1.5393742878
 C          4.1649932675       -0.0207376686       -1.3000367042
 H          3.9537491247        0.7966702316       -1.9967420932
 H          3.9528929339       -0.9430597636       -1.8489199525
 H          4.0701142493       -2.5970321329       -0.2902661435
 H          4.6768073524       -3.4751588791        1.1003638756
 H          5.0304910376       -0.8510327427        1.9261278979
 H          3.7141826981       -1.9091445890        2.3931022789
 O          2.1877731074       -0.3019756124        1.9177711971
 C          1.1200657297        0.5476939734        1.7000580797
 O          0.2989561453        0.5987235232        2.6394204438
 H         -0.7212503665       -0.3812051142       -0.2222196513
 C         -1.2113324601        0.2741360642       -0.9258142454
 C         -0.9835347530        1.6415354842       -0.8618463564
 C         -1.5992912592        2.4589717547       -1.8013768321
 C         -2.4107603382        1.9099919803       -2.7794581857
 C         -2.6505671338        0.5484228452       -2.8260567935
 C         -2.0429464459       -0.2765846402       -1.8867734272
 N         -2.2622266743       -1.6630522819       -1.8762202676
 S         -2.3892264313       -2.4430384771       -0.4004201366
 O         -1.0847331675       -2.6327810159        0.1836482675
 O         -3.1236609453       -3.6541881046       -0.7014838919
 C         -3.3984554732       -1.3607630686        0.5968842297
 C         -4.7280140783       -1.2377912988        0.2389778248
 C         -5.5400282943       -0.3707198907        0.9500039440
 C         -5.0101545130        0.3623787602        2.0014889593
 C         -3.6769491146        0.2232788005        2.3520785579
 C         -2.8588834257       -0.6459153768        1.6460767968
 H         -1.8170555094       -0.7606845571        1.9033724816
 H         -3.2545197799        0.7881713053        3.1680305111
 H         -5.6386946936        1.0436676178        2.5529308508
 H         -6.5788777698       -0.2658077745        0.6820619286
 H         -5.1044348485       -1.8332753729       -0.5768306926
 H         -2.9497966287       -1.9921264880       -2.5379946054
 H         -3.2923061595        0.1252537582       -3.5832576601
 H         -2.8736778522        2.5545117531       -3.5109953548
 H         -1.4382279242        3.5240052455       -1.7722948803
 C         -0.1193712539        2.1643627104        0.2609185968
 H         -0.7195880151        2.1217553944        1.1828068238
 C          0.3490906648        3.5893876935        0.0510354064
 C         -0.5054138301        4.7384348227        0.4924346514
 C          0.7444741040        4.4013603346        1.2467157181
 H          1.5949097544        5.0612563048        1.1640712802
 H          0.6492451269        3.9332027816        2.2160153077
 H         -0.5117892358        5.6361045683       -0.1072633525
 H         -1.4524901105        4.5087336326        0.9567124360
 H          0.9408682158        3.7034222280       -0.8495320669
 O          1.9488093279        1.5958855969       -1.6554440765
