  62
        -98.93716939
 C          1.2186449306        1.3359830993        0.2556231696
 C          2.1394719208        0.8481828895        1.2125737796
 C          2.8754080106       -0.3860635906        0.8750361598
 C          2.5938911504       -1.0061899410       -0.2857656499
 C          3.2363445902       -2.2405608912       -0.8603685697
 C          4.6302276801       -1.9638063115       -1.4475168700
 C          5.5265858203       -1.0750809213       -0.5891813104
 H          5.0259430004       -0.1208343512       -0.4151079206
 H          6.4331020402       -0.8643310415       -1.1627490807
 C          5.9509546405       -1.6763222809        0.7485935297
 H          6.6489570506       -0.9748798208        1.2130962193
 H          6.4904952704       -2.6087510210        0.5675719499
 C          4.8235510607       -1.9535632105        1.7452343900
 H          5.2884552408       -2.1460173102        2.7167420799
 H          4.2799124406       -2.8565227206        1.4807667803
 C          3.8538724808       -0.7936660004        1.9503002498
 H          4.4237401309        0.1090857597        2.1991994394
 H          3.2458035909       -1.0016360301        2.8394601300
 H          4.4980627000       -1.4674000318       -2.4118765901
 H          5.1260676600       -2.9194958416       -1.6254709098
 H          3.2822212003       -3.0229986710       -0.1086900994
 H          2.5858190600       -2.5878981214       -1.6651474594
 O          1.6565512403       -0.5318336512       -1.1520547899
 C          0.9398955004        0.6284650689       -0.9156694701
 O          0.1117764902        0.9013423387       -1.8012183701
 H         -1.0154107591        0.7703486099        1.8134060302
 C         -1.6169432492        1.3233104797        1.1014853301
 C         -1.0251682793        2.3474435995        0.3712388097
 C         -1.8038858394        3.0430595192       -0.5426346904
 C         -3.1350911295        2.7089879693       -0.7258114701
 C         -3.7173991394        1.6832766595       -0.0043704996
 C         -2.9470927293        0.9854331197        0.9170242904
 N         -3.5263898792       -0.0722906400        1.6525983609
 S         -4.0824946795       -1.3742071702        0.7554664114
 O         -5.2585792796       -0.9717895504        0.0274535815
 O         -4.2596531494       -2.4449575799        1.7111883817
 C         -2.7641748497       -1.7719591607       -0.3761723387
 C         -1.7389754697       -2.5829035006        0.0681159713
 C         -0.6949097498       -2.8749215109       -0.7936638388
 C         -0.6907462500       -2.3457318913       -2.0747601389
 C         -1.7200234401       -1.5221287414       -2.5006670890
 C         -2.7688221399       -1.2293989411       -1.6446816289
 H         -3.5883481499       -0.5952723811       -1.9405398490
 H         -1.7010418602       -1.0969473217       -3.4906000391
 H          0.1251711298       -2.5659712416       -2.7448034290
 H          0.1137958602       -3.5073113109       -0.4624127887
 H         -1.7839630795       -2.9833003703        1.0688367715
 H         -2.9234761391       -0.4144360498        2.3880166609
 H         -4.7468329694        1.3982592195       -0.1501739094
 H         -3.7266508096        3.2518426391       -1.4473686901
 H         -1.3619389795        3.8281030690       -1.1335989907
 C          0.4443442008        2.5982017594        0.5934879493
 H          0.6062368310        2.7354667297        1.6759883793
 C          0.9575546207        3.8603606392       -0.0810664111
 C          2.4037267707        3.9993388390       -0.4493913214
 C          1.3637368005        3.8989951987       -1.5225998012
 H          1.1335677004        4.7866206386       -2.0938187915
 H          1.2900126203        2.9842258585       -2.0885550509
 H          3.0458945406        3.1474230790       -0.2786320013
 H          2.8877881108        4.9502857390       -0.2844682318
 H          0.4757927409        4.7506209293        0.3120101587
 O          2.3454902310        1.4193335598        2.3187067494
