  62
        -98.94516830
 C         -1.0505024825       -1.3064861554        0.4672128776
 C         -1.5539589075       -0.7063624817       -0.7148939462
 C         -2.3599823098        0.5092971795       -0.5186437585
 C         -2.5816205890        0.9853473057        0.7187052032
 C         -3.3563139510        2.2265797776        1.0695906364
 C         -4.8761947064        2.0197599084        1.1267084264
 C         -5.5631100070        1.8423340073       -0.2280543590
 H         -6.6376241112        1.9315075997       -0.0562021489
 H         -5.2711116804        2.6566159996       -0.8920596459
 C         -5.2839148835        0.4956411382       -0.9101667075
 H         -6.2194142528        0.0780939455       -1.2890866954
 H         -4.8918775336       -0.2112767095       -0.1754589563
 C         -4.3124503173        0.5713498931       -2.0885071423
 H         -4.7521365835        1.1690087588       -2.8902764511
 H         -4.1542937760       -0.4402908170       -2.4709204933
 C         -2.9420653097        1.1626066817       -1.7349704070
 H         -2.2562936929        0.9817433007       -2.5674837862
 H         -3.0226898719        2.2397625662       -1.5857462852
 H         -5.3053305880        2.8983965495        1.6137616256
 H         -5.0871968506        1.1532384872        1.7574537841
 H         -3.1203555934        3.0183915173        0.3575944989
 H         -3.0153736554        2.5375604344        2.0594444295
 O         -2.0886615908        0.3769002929        1.8298334993
 C         -1.3219352006       -0.7734311862        1.7306747419
 O         -0.9436797821       -1.2245399967        2.8299916568
 O         -1.3535665407       -1.1344934260       -1.8814887961
 C         -0.1574856552       -2.5352066636        0.4768197898
 C          1.2981993604       -2.1588712817        0.3179402604
 C          2.2730067361       -2.7729706774        1.0966711917
 C          3.6070812508       -2.4406556366        0.9489749259
 C          3.9923831047       -1.4714361013        0.0402544103
 C          3.0260441338       -0.8478315920       -0.7396197825
 C          1.6913453204       -1.2046624435       -0.6088922536
 H          0.9623829857       -0.7255656383       -1.2427083994
 N          3.3789694635        0.1592107932       -1.6564438020
 S          2.5214199906        1.5974226012       -1.6089534710
 O          1.2360681570        1.4487054051       -2.2377287567
 O          3.4144122408        2.5648250735       -2.2114174357
 C          2.3384793541        1.9401169657        0.1315615491
 C          3.4456584362        2.3828878427        0.8291009382
 C          3.3397028755        2.5872080743        2.1947767900
 C          2.1370312030        2.3360805539        2.8382495325
 C          1.0338447917        1.8960174076        2.1237331648
 C          1.1331544082        1.6953896677        0.7558539867
 H          0.2947321163        1.3529549666        0.1684773248
 H          0.1006214698        1.6897668286        2.6244315823
 H          2.0538777712        2.4840994582        3.9033218870
 H          4.1927067921        2.9352119958        2.7546219344
 H          4.3592866803        2.5743790293        0.2900016396
 H          4.3710683871        0.3461250706       -1.6995751937
 H          5.0309064995       -1.1981364484       -0.0669369488
 H          4.3529658541       -2.9284620153        1.5573215637
 H          1.9767625688       -3.5086388579        1.8291487761
 H         -0.2754679968       -2.9832100018        1.4735041430
 C         -0.5340838134       -3.5769956536       -0.5596075681
 C         -0.2180637915       -5.0182274993       -0.3018034745
 C         -1.6391428859       -4.5434999544       -0.2626396958
 H         -2.3051583980       -4.8242562567       -1.0645658109
 H         -2.1244691295       -4.4655908836        0.6997026644
 H          0.0968989236       -5.6304818455       -1.1327126145
 H          0.2539203900       -5.2716055582        0.6351122730
 H         -0.4501064709       -3.2155353879       -1.5762017723
