  62
        -98.94847745
 C          0.8322394074        1.2251160211        0.5673393747
 C          1.2065222766        0.5404245122       -0.6135739733
 C          2.1463356302       -0.5723662161       -0.4263445168
 C          2.4734145471       -0.9668704803        0.8169815682
 C          3.4121150343       -2.0882606599        1.1713501961
 C          4.8881245305       -1.6671378245        1.2001457756
 C          5.5149643440       -1.4169224720       -0.1722731763
 H          6.5937745377       -1.3421604410       -0.0217234557
 H          5.3351957341       -2.2793591344       -0.8146829370
 C          5.0246757415       -0.1405613592       -0.8705262107
 H          4.5458486379        0.5142203826       -0.1386056912
 H          5.8813548662        0.4046891820       -1.2731668900
 C          4.0562094491       -0.3811582902       -2.0291213814
 H          4.5690928246       -0.9231061171       -2.8265331377
 H          3.7510186907        0.5908397738       -2.4244833638
 C          2.7885107073       -1.1582445044       -1.6468000755
 H          2.0728829508       -1.0742733955       -2.4672654454
 H          3.0281569877       -2.2086711599       -1.4891364107
 H          4.9836979254       -0.7692173072        1.8152334022
 H          5.4470613340       -2.4667387366        1.6919126405
 H          3.1300588171       -2.4297661604        2.1697519378
 H          3.2882053120       -2.9136066520        0.4703197915
 O          1.9629373037       -0.3763951023        1.9324507797
 C          1.1900755520        0.7702611805        1.8355079944
 O          0.8824497719        1.2789566259        2.9340100884
 O          0.8004171562        0.8529276034       -1.7615096071
 C          0.0160143794        2.5009953292        0.4742149394
 C         -1.3137698389        2.2366687990       -0.1867149068
 C         -1.8256096460        3.0147140889       -1.2170817233
 C         -3.0655469597        2.7273770715       -1.7605948948
 C         -3.8180138040        1.6677623856       -1.2897431347
 C         -3.3183538532        0.8897952899       -0.2505595158
 C         -2.0755584229        1.1767029098        0.2899599735
 H         -1.6981011596        0.5743435998        1.1043504960
 N         -4.0689542120       -0.1755402487        0.2667920571
 S         -3.3294101959       -1.5131557183        0.9204591647
 O         -4.3615762258       -2.5298587074        0.8991585860
 O         -2.7857370715       -1.2110721198        2.2215324930
 C         -2.0275712164       -2.0032778208       -0.1962019352
 C         -0.8883283638       -2.5656101852        0.3409725585
 C          0.0799592323       -3.0686505278       -0.5118882396
 C         -0.1002989485       -2.9898207360       -1.8833038609
 C         -1.2403540313       -2.4036417911       -2.4084998384
 C         -2.2199996897       -1.9144939924       -1.5602407811
 H         -3.1204958940       -1.4683732326       -1.9491955308
 H         -1.3721325887       -2.3306516237       -3.4759074848
 H          0.6524071233       -3.3866644519       -2.5456223352
 H          0.9656878363       -3.5233288760       -0.0993236366
 H         -0.7799822142       -2.5946883886        1.4143310702
 H         -4.9110940676       -0.4065979648       -0.2386761127
 H         -4.7855884106        1.4451056699       -1.7125953479
 H         -3.4502506107        3.3363127630       -2.5643160737
 H         -1.2538506602        3.8448571213       -1.5970090314
 H         -0.1830950376        2.8094855385        1.5115713608
 C          0.8312429716        3.5801176617       -0.2093636060
 C          0.6043018063        5.0237942650        0.1205372478
 C          1.8483696014        4.3338163573        0.5916156328
 H          2.7890558481        4.5868403515        0.1258584513
 H          1.9337324096        4.0881053765        1.6406323624
 H          0.6942601519        5.7547183586       -0.6688222575
 H         -0.1533010441        5.2560393066        0.8537504717
 H          1.0922319944        3.3211946921       -1.2290085781
