  62
        -98.92739912
 C         -1.8778039400       -1.2434804747        0.1960888071
 C         -2.1378013673        0.1462354497        0.2542154632
 C         -3.5597157536        0.5362929995        0.3297874950
 C         -4.5104831832       -0.4126468799        0.3505356552
 C         -6.0052916880       -0.2471514855        0.4686572078
 C         -6.6638446215        0.8696140750       -0.3523663212
 C         -6.0000121146        1.1571800297       -1.7067743912
 H         -5.2833437278        0.3701786996       -1.9474805180
 H         -6.7650456058        1.1510193238       -2.4853957712
 C         -5.2975839429        2.5163612128       -1.7505251641
 H         -5.1775973699        2.8168334543       -2.7942281592
 H         -5.9389225749        3.2579244764       -1.2691344489
 C         -3.9124970994        2.5604260485       -1.1058883891
 H         -3.5749304123        3.5998602027       -1.1029364759
 H         -3.2003150787        1.9969805918       -1.7150613752
 C         -3.8312430681        2.0131650937        0.3286548103
 H         -2.9694149433        2.4776672301        0.8162089480
 H         -4.7256243405        2.2597663876        0.8959109473
 H         -6.6868618089        1.7877513970        0.2329338446
 H         -7.7018659216        0.5727558636       -0.5115335931
 H         -6.2480735214       -0.1042142483        1.5256553688
 H         -6.4208709049       -1.2130245297        0.1715009067
 O         -4.2105412912       -1.7420484946        0.2992277578
 C         -2.9039925087       -2.1870841402        0.2160561162
 O         -2.7848127638       -3.4288467600        0.1722610798
 O         -1.2407598089        1.0264377071        0.2604589992
 C         -0.4533768016       -1.7803039700        0.1002892298
 C          0.3935430340       -1.1069627890        1.1523955983
 C          0.0072011627       -1.3517534965        2.4725864786
 C          0.6702958757       -0.7745282249        3.5353898498
 C          1.7531770599        0.0584006367        3.3152252014
 C          2.1590465385        0.3014084044        2.0099343842
 C          1.4874310192       -0.2830205976        0.9420629990
 H          1.8178307672       -0.0229839980       -0.0447668940
 N          3.2836862704        1.0950836053        1.7652051953
 S          3.6823196543        1.7627969587        0.2939452397
 O          4.7826724672        2.6500285265        0.6108305927
 O          2.5604384662        2.3724936729       -0.3787599648
 C          4.3030599699        0.3918011779       -0.6588926261
 C          4.0519841379        0.3521670463       -2.0159840165
 C          4.5665336591       -0.6945498655       -2.7648446991
 C          5.3208159290       -1.6791608387       -2.1463801460
 C          5.5658457041       -1.6246053343       -0.7825049400
 C          5.0569799156       -0.5789625363       -0.0289465093
 H          5.2282163751       -0.5074525851        1.0321444067
 H          6.1509663197       -2.3934234777       -0.3039830398
 H          5.7180776282       -2.4944841023       -2.7299872508
 H          4.3725676641       -0.7382510516       -3.8242615240
 H          3.4484610255        1.1305060119       -2.4551431460
 H          3.6472410016        1.6116859442        2.5503250630
 H          2.2724235518        0.5191544830        4.1414103438
 H          0.3413647908       -0.9707370536        4.5449550620
 H         -0.8443100105       -1.9954089269        2.6507166334
 H         -0.5332004642       -2.8388353279        0.4010114961
 C         -0.0487547232       -1.8160340880       -1.3661474820
 C          0.4985232616       -0.6728762261       -2.1629207604
 C          1.3574029760       -1.8720376034       -1.8804760334
 H          1.5647013712       -2.5441767917       -2.6998110063
 H          2.1689125099       -1.7862743923       -1.1766022712
 H          0.1230566595       -0.5453483185       -3.1688465842
 H          0.6865001061        0.2654269208       -1.6650013569
 H         -0.7629508415       -2.4436938140       -1.8967336800
