  62
        -98.94221252
 C         -2.5155158810       -0.6140813524       -0.5159671122
 C         -1.5165314889        0.2478388378       -1.0306028489
 C         -1.7702187026        1.6878307234       -0.8869623576
 C         -2.9170526286        2.1054353596       -0.3224152179
 C         -3.2688869584        3.5385496732       -0.0519344480
 C         -2.8132191757        3.9649282915        1.3509396647
 C         -1.3647646369        3.5965238468        1.6763569330
 H         -1.1508393878        3.9771378772        2.6777926882
 H         -1.2672120684        2.5088196632        1.7258066072
 C         -0.3265831724        4.1489848394        0.6897348662
 H         -0.7605380914        4.9692028833        0.1157794080
 H          0.5116261976        4.5558188330        1.2592090625
 C          0.2537056769        3.1065252500       -0.2682121267
 H          0.6033393375        2.2425748846        0.3053799504
 H          1.1273423381        3.5455425715       -0.7584385047
 C         -0.6995899334        2.6248260671       -1.3700023819
 H         -1.1395990083        3.4863990603       -1.8760415798
 H         -0.1112475919        2.0613915006       -2.0993946309
 H         -2.9428877539        5.0449238687        1.4422180408
 H         -3.4598846676        3.4817051138        2.0870894264
 H         -2.8021804816        4.1711590213       -0.8042685430
 H         -4.3527335040        3.6462661962       -0.1195866270
 O         -3.8764307177        1.2506137049        0.1160160108
 C         -3.6838638874       -0.1188050012        0.0705343657
 O         -4.6159754936       -0.7840808307        0.5640847166
 H          0.3923574240       -2.2683222434       -0.8449210384
 C          0.1196832172       -2.2922154426        0.1979176297
 C         -1.2176965642       -2.3194480101        0.5630202918
 C         -1.5384541696       -2.3475871896        1.9174408434
 C         -0.5471341401       -2.3146153807        2.8811823391
 C          0.7829732496       -2.2138337773        2.5121246883
 C          1.1093723468       -2.1939546592        1.1642239953
 N          2.4581265581       -1.9903685952        0.7985819193
 S          3.0222006963       -0.4403992152        1.2070236373
 O          4.0897563113       -0.6015466432        2.1686140777
 O          1.9182469069        0.3822241662        1.6420499380
 C          3.6944496847        0.1787782332       -0.3256020831
 C          2.8212649293        0.4645141519       -1.3585122601
 C          3.3391483700        0.9458887617       -2.5511451483
 C          4.7066592174        1.1280612778       -2.6923398269
 C          5.5678757776        0.8312964998       -1.6468688222
 C          5.0594462002        0.3517678089       -0.4501542167
 H          5.6868248177        0.1089754228        0.3918775495
 H          6.6307097204        0.9719968224       -1.7596946697
 H          5.1016152206        1.5029799549       -3.6234335326
 H          2.6671168590        1.1723827064       -3.3636850069
 H          1.7594949046        0.3121554542       -1.2276798377
 H          2.6030600103       -2.1461326079       -0.1906001080
 H          1.5693535705       -2.1168108052        3.2448516832
 H         -0.8135926210       -2.3337883022        3.9275709416
 H         -2.5805757159       -2.3561843669        2.2070228497
 C         -2.3122895504       -2.1228990796       -0.4571835780
 H         -3.2444235404       -2.5436980303       -0.0596809992
 C         -2.0308379739       -2.7383561458       -1.8103426357
 C         -2.0936901679       -4.2283606437       -1.9581043141
 C         -3.1544061104       -3.3684493042       -2.5749122559
 H         -3.1703342294       -3.2586846952       -3.6488339370
 H         -4.1348353094       -3.3599284635       -2.1214485940
 H         -1.3822685791       -4.7137912024       -2.6083789515
 H         -2.3533231461       -4.8037694547       -1.0822794042
 H         -1.2864809185       -2.2023488039       -2.3844060058
 O         -0.4590169517       -0.1468456717       -1.5887032280
