  62
        -98.93253748
 C         -2.1724184692       -0.6863697323        0.0136407282
 C         -3.4589220070       -1.0830144052        0.4430854523
 C         -4.5786604551       -0.1878871590        0.0978238465
 C         -4.3191538452        0.9522284832       -0.5674339048
 C         -5.2832698471        2.0142485959       -1.0332187677
 C         -6.3759537285        2.4398499322       -0.0401873855
 C         -7.7771789085        1.9751893941       -0.4411264468
 H         -7.8813719535        2.0805118958       -1.5229914564
 H         -8.5108287523        2.6382071352        0.0227462940
 C         -8.1275184453        0.5442302324       -0.0368152744
 H         -9.0845687003        0.2948099790       -0.5009142875
 H         -8.2696981801        0.4990627056        1.0450747869
 C         -7.0995115694       -0.5175999374       -0.4324783702
 H         -6.7149926126       -0.3237511403       -1.4331387994
 H         -7.6121295020       -1.4811290423       -0.4694308105
 C         -5.9349644854       -0.6461728569        0.5608667341
 H         -5.7934309688       -1.6981218636        0.8274411217
 H         -6.1817318565       -0.1312645825        1.4937628163
 H         -6.3816356068        3.5303246681       -0.0005815080
 H         -6.1286910726        2.0828988096        0.9582816700
 H         -5.7413137451        1.6790651302       -1.9671861275
 H         -4.6560752602        2.8722446457       -1.2858548818
 O         -3.0565297471        1.3002828194       -0.9525238053
 C         -1.9586108761        0.5015192313       -0.6827598248
 O         -0.8766015073        0.9546571991       -1.1041939463
 O         -3.6674861109       -2.1441701218        1.0915066484
 C         -0.9836455475       -1.5773921646        0.3247406253
 C          0.0394523314       -0.8056091811        1.1200635738
 C         -0.3645271766       -0.1850565542        2.3000871046
 C          0.5297407631        0.5490436384        3.0532012964
 C          1.8441635582        0.6850305781        2.6415981632
 C          2.2616450790        0.0604943145        1.4729645499
 C          1.3630381471       -0.6908156330        0.7266616433
 H          1.7083829985       -1.1586321530       -0.1786773277
 N          3.6089347058        0.1467521314        1.0678368486
 S          3.9956361841        0.4773387180       -0.5432423332
 O          3.5229045251        1.7942214717       -0.9129286586
 O          3.5770501523       -0.6203927702       -1.3750062397
 C          5.7756611700        0.4852547459       -0.4175228620
 C          6.4536300059        1.6870958337       -0.3465950344
 C          7.8342514127        1.6724679553       -0.2224141058
 C          8.5094753149        0.4626263510       -0.1686506534
 C          7.8153074413       -0.7360339641       -0.2420639944
 C          6.4353929238       -0.7279815477       -0.3674239314
 H          5.8548599274       -1.6329637274       -0.4363349743
 H          8.3438555026       -1.6748139734       -0.2025579295
 H          9.5836520732        0.4536553575       -0.0717700047
 H          8.3764686644        2.6027613561       -0.1684945181
 H          5.8877703442        2.6032734123       -0.4017087377
 H          4.1315375820        0.7830055945        1.6573929245
 H          2.5411714173        1.2698886659        3.2230202408
 H          0.2011418062        1.0283290667        3.9633168403
 H         -1.3958433907       -0.2812041997        2.6122428946
 H         -1.3798203909       -2.3826940483        0.9612218666
 C         -0.4338900320       -2.1885645397       -0.9461810956
 C          0.2941282368       -3.4974600825       -0.8966656068
 C         -1.0761457088       -3.4243469938       -1.4984461518
 H         -1.1773828952       -3.5171885879       -2.5693730841
 H         -1.9028142743       -3.8423181542       -0.9427074404
 H          1.1399154207       -3.6371741868       -1.5529365389
 H          0.3994145741       -3.9721144306        0.0671222681
 H         -0.0925900864       -1.4422021424       -1.6562866549
