  62
        -98.93706974
 C         -1.1503670418       -1.4329144605        0.7801873109
 C         -2.0794786096       -1.2613188889       -0.2750628269
 C         -3.1592577921       -0.2962820343       -0.0217814083
 C         -3.2087608795        0.3500982963        1.1566105670
 C         -4.2249502563        1.3924598680        1.5217432542
 C         -3.7251325801        2.8026090600        1.1793994751
 C         -3.1709602962        2.9409498885       -0.2391208374
 H         -2.8964154766        3.9898606258       -0.3758673965
 H         -2.2435784142        2.3673837752       -0.3198907913
 C         -4.1442476900        2.5194870023       -1.3490381854
 H         -5.1647014302        2.5156619936       -0.9631617643
 H         -4.1014053295        3.2639898903       -2.1469784823
 C         -3.8381424637        1.1643673944       -1.9899432595
 H         -2.7831142399        1.1275487264       -2.2750034571
 H         -4.4293899469        1.0810094008       -2.9059705334
 C         -4.1478556348       -0.0670094932       -1.1292615747
 H         -5.1643556189        0.0026486836       -0.7369233508
 H         -4.0850317509       -0.9483411986       -1.7742159998
 H         -4.5500440991        3.5042382927        1.3199551939
 H         -2.9276091471        3.0688268466        1.8772860335
 H         -5.1540184611        1.1870739950        0.9934626107
 H         -4.4073282549        1.3338150831        2.5964138424
 O         -2.3023545391        0.1528948497        2.1480357106
 C         -1.2322536864       -0.7085879896        1.9673140779
 O         -0.4323175387       -0.7453888261        2.9267162666
 H          0.4959704201        0.0929717381       -0.0653229041
 C          0.9494486763       -0.5642689294       -0.7896941136
 C          0.7907772896       -1.9405168444       -0.6490367071
 C          1.3747036714       -2.7479921217       -1.6170047105
 C          2.0568494592       -2.1879370848       -2.6863938944
 C          2.1995357958       -0.8202445948       -2.8174811566
 C          1.6311428447        0.0015887553       -1.8510216599
 N          1.7273814963        1.3987541086       -1.9251375972
 S          1.7796586030        2.3092083633       -0.5252695300
 O          0.4801084826        2.3634368797        0.0954694344
 O          2.3255920242        3.5800734176       -0.9536345452
 C          2.9637870659        1.4742701140        0.5163513543
 C          2.5706537256        0.8217313097        1.6663618359
 C          3.5258160737        0.1480615058        2.4126003566
 C          4.8489705924        0.1393908793        2.0012194039
 C          5.2305347695        0.8083997588        0.8476919912
 C          4.2807449242        1.4797440536        0.0966212588
 H          4.5394397255        2.0212554504       -0.7987577834
 H          6.2612766021        0.8056584102        0.5320882298
 H          5.5853826429       -0.3897923585        2.5850559168
 H          3.2187632359       -0.3695525897        3.3076189824
 H          1.5347006139        0.8344591079        1.9696642013
 H          2.3409808967        1.7557640353       -2.6417137343
 H          2.7285442005       -0.3927102267       -3.6549479114
 H          2.4894028973       -2.8381968884       -3.4317022912
 H          1.3010830424       -3.8189224427       -1.5712763266
 C          0.0399779442       -2.3660545441        0.5949198870
 H          0.7112667233       -2.1550840674        1.4458915581
 C         -0.4547145388       -3.7933152554        0.7850761110
 C         -0.8748281165       -4.7215980369       -0.3095784010
 C          0.3352740978       -5.0405055364        0.5186186213
 H          0.2523848273       -5.8412194998        1.2390941285
 H          1.3180846253       -4.9561694049        0.0859009297
 H         -0.7609097572       -4.3824860718       -1.3258460667
 H         -1.7698922029       -5.3065249228       -0.1547804812
 H         -1.0681056555       -3.8262310469        1.6839718795
 O         -2.0081424374       -1.8700678491       -1.3722718151
