  62
        -98.93894048
 C         -1.0232109984       -1.9260164358       -0.6712443521
 C         -0.2543843098       -2.2810400765        0.4640424956
 C          1.2156510645       -2.3393344326        0.2795648264
 C          1.7328632359       -2.1492756460       -0.9468886867
 C          3.1763577506       -2.1228531392       -1.3776640596
 C          3.8953244957       -0.8271420968       -0.9802038796
 C          3.7161377556       -0.4210013984        0.4794993382
 H          4.2541731403        0.5192699980        0.6312885570
 H          2.6635635563       -0.2150627596        0.6811827307
 C          4.2361757839       -1.4286818594        1.5033275954
 H          5.2836335654       -1.6540316798        1.2902556043
 H          4.1920532731       -0.9377425002        2.4789600862
 C          3.4568026035       -2.7444124028        1.6083167879
 H          3.7089753920       -3.1946143532        2.5727345001
 H          3.7652553922       -3.4566429005        0.8465968181
 C          1.9408387506       -2.5808653962        1.5799277225
 H          1.4785358417       -3.4776806271        2.0093956224
 H          1.6505548615       -1.7586462403        2.2462456725
 H          4.9588284616       -0.9486341967       -1.1950768968
 H          3.5131642134       -0.0142968522       -1.6029920420
 H          3.7055373554       -2.9864102343       -0.9862808466
 H          3.1744117145       -2.1985900585       -2.4674852119
 O          0.9395308238       -1.9163525086       -2.0344151108
 C         -0.4253434471       -1.7446257799       -1.9200130745
 O         -0.9960937166       -1.4488037074       -2.9896152311
 H         -1.2544343556       -0.0321220578        1.1733188683
 C         -1.9392468309        0.5215800679        0.5498941784
 C         -2.6984803909       -0.1396130282       -0.4060309086
 C         -3.5903430125        0.5980652895       -1.1752865471
 C         -3.7111454363        1.9647367846       -0.9941298671
 C         -2.9235396674        2.6247085870       -0.0680209974
 C         -2.0248813377        1.8972931577        0.7044789425
 N         -1.1908889282        2.5365660368        1.6394183471
 S          0.4527570855        2.2116150204        1.6288074175
 O          0.7004883917        0.8605735191        2.0544466223
 O          1.0276779270        3.2575105834        2.4462934675
 C          0.9485606133        2.4379158122       -0.0684435061
 C          1.4092791134        3.6756302851       -0.4731759035
 C          1.7389988653        3.8648922216       -1.8054118385
 C          1.5904387530        2.8235194640       -2.7097006678
 C          1.1238653008        1.5876863157       -2.2889084097
 C          0.8026183692        1.3911817572       -0.9553384278
 H          0.4428771512        0.4385460366       -0.6000193199
 H          0.9954729518        0.7718954491       -2.9842768849
 H          1.8403305478        2.9717542078       -3.7484197209
 H          2.1065463574        4.8227071762       -2.1366820043
 H          1.5127866700        4.4554899757        0.2638398966
 H         -1.3425274360        3.5327908596        1.7121024068
 H         -2.9990539581        3.6941722022        0.0565721300
 H         -4.4104822045        2.5256546572       -1.5948623740
 H         -4.1773381350        0.0963058286       -1.9302122232
 C         -2.5124346523       -1.6219662161       -0.6254012982
 H         -2.8926286037       -1.8543726733       -1.6333877994
 C         -3.2952185760       -2.4741055454        0.3609399749
 C         -3.8164105481       -1.9514503559        1.6621184032
 C         -4.7669048939       -2.2453125345        0.5427599103
 H         -5.4159898848       -3.1036730859        0.6263079069
 H         -5.2081490393       -1.4037163745        0.0305628612
 H         -3.7866854896       -2.6137407182        2.5137578138
 H         -3.6196984406       -0.9203161349        1.9125439564
 H         -2.9587393861       -3.5054054988        0.3592926221
 O         -0.7409883848       -2.5352508330        1.5949009894
