  62
        -98.94803334
 C          1.2711887645       -1.0314480397        0.0527096330
 C          1.6343839155        0.0321123041       -0.8070937137
 C          2.6869991026        0.9251941556       -0.3130708233
 C          3.1900240392        0.7425205132        0.9212184042
 C          4.2457310710        1.5881962748        1.5805141240
 C          5.6824288309        1.2054520434        1.1986654994
 C          6.1046880015        1.5913301995       -0.2195564741
 H          5.8906067080        2.6476469929       -0.3854270898
 H          7.1876842215        1.4652963218       -0.2762881818
 C          5.4514092191        0.7513219245       -1.3257910039
 H          6.2118848018        0.4457740458       -2.0478282403
 H          5.0354368264       -0.1609575610       -0.8922275927
 C          4.3520612120        1.4739784625       -2.1043086858
 H          3.9361315748        0.7772831173       -2.8364066075
 H          4.7817125308        2.3179521278       -2.6484376098
 C          3.1990722496        1.9912814872       -1.2338090860
 H          3.5176067718        2.8643218652       -0.6640296716
 H          2.3758918782        2.2876188307       -1.8890905991
 H          6.3500969801        1.7073361801        1.9027716968
 H          5.8038944847        0.1284462616        1.3353426071
 H          4.0709996808        2.6391213638        1.3468903972
 H          4.1258144530        1.4491140386        2.6572807856
 O          2.7665544525       -0.2524148551        1.7456214485
 C          1.8069217984       -1.1667486374        1.3330012077
 O          1.5227935243       -2.0301538065        2.1851783259
 H         -0.8320630559        0.2256575138        0.6078782222
 C         -1.4309128297       -0.6333778760        0.8677155621
 C         -1.0249942261       -1.8989583548        0.4681189667
 C         -1.7956876624       -2.9906339159        0.8484806347
 C         -2.9322582896       -2.8092560241        1.6177566055
 C         -3.3419123850       -1.5439088218        1.9976623103
 C         -2.5807472534       -0.4449222946        1.6164609240
 N         -2.9557473409        0.8616094797        1.9648078399
 S         -2.6994208073        2.0988485246        0.8673309370
 O         -1.3079692850        2.4757961358        0.8470242026
 O         -3.6241058993        3.1342187456        1.2793740587
 C         -3.2132524346        1.4248488011       -0.7030112561
 C         -4.5667117135        1.2043447947       -0.8774761596
 C         -5.0101243231        0.6339284007       -2.0585375785
 C         -4.0952272921        0.2881884803       -3.0420222705
 C         -2.7423887763        0.5214156921       -2.8547359623
 C         -2.2920280920        1.0956730276       -1.6755995642
 H         -1.2411916950        1.2784287140       -1.5124994436
 H         -2.0224812866        0.2564471003       -3.6128418739
 H         -4.4373390719       -0.1627290407       -3.9601898842
 H         -6.0630718523        0.4575722252       -2.2078766189
 H         -5.2466822259        1.4977729064       -0.0942689024
 H         -3.8517858516        0.9416241334        2.4224173172
 H         -4.2332026496       -1.4053118760        2.5899574081
 H         -3.5149922988       -3.6668504505        1.9175374823
 H         -1.5021467822       -3.9836689756        0.5503017481
 C          0.2048002166       -2.0100353900       -0.4000829393
 H         -0.0771433611       -1.6822218862       -1.4130231202
 C          0.7632813699       -3.4154257341       -0.4821361608
 C          0.2456228481       -4.3778314319       -1.5079248720
 C          1.6135202716       -3.7858675345       -1.6594526192
 H          2.4739674729       -4.4172927854       -1.4963134993
 H          1.7650109389       -3.0311253761       -2.4175183449
 H          0.1685417859       -5.4213716504       -1.2423271258
 H         -0.5310498625       -4.0311465861       -2.1725703517
 H          1.0548160361       -3.8031550399        0.4873047598
 O          1.0994917094        0.2269228574       -1.9323905952
