  62
        -98.94532018
 C          1.5429889099        1.1097471493        0.2138133058
 C          2.8739516634        1.2323031382        0.6869330756
 C          3.9273478896        0.7626403283       -0.2183316907
 C          3.5962053249        0.2578845132       -1.4205477957
 C          4.5555755721       -0.2524106095       -2.4612985907
 C          4.9900052202       -1.7085554938       -2.2455725923
 C          5.9565667901       -1.9329175168       -1.0819400197
 H          6.3453906613       -2.9484088002       -1.1804160053
 H          6.8015038461       -1.2501201159       -1.1766074285
 C          5.3219999156       -1.7807205221        0.3076562259
 H          4.2340525953       -1.8367962338        0.2200355222
 H          5.6332531747       -2.6132321338        0.9428194012
 C          5.6952636964       -0.4901027296        1.0373215707
 H          5.1628049862       -0.4711126441        1.9915727477
 H          6.7667072273       -0.4861084948        1.2492805277
 C          5.3432425243        0.7927198733        0.2727270135
 H          6.0320434400        0.9359568016       -0.5593913094
 H          5.4398355344        1.6380007941        0.9584077124
 H          4.0968306393       -2.3216356701       -2.1018159320
 H          5.4773359513       -2.0430651296       -3.1643889720
 H          4.0376454374       -0.1866760788       -3.4205467436
 H          5.4357812757        0.3901304798       -2.4960866151
 O          2.3089690521        0.1706180891       -1.8460653513
 C          1.2504997614        0.5668114297       -1.0379448698
 O          0.1325166138        0.4023827402       -1.5605718710
 O          3.1674313314        1.7155616063        1.8130351877
 C          0.4180894729        1.5335975891        1.1453838384
 C         -0.2231761012        0.2837312198        1.6984160036
 C          0.4554285382       -0.4480495685        2.6705788904
 C         -0.0839504072       -1.6134862306        3.1789403934
 C         -1.3032633738       -2.0811154305        2.7181088053
 C         -1.9843475297       -1.3638620707        1.7432130807
 C         -1.4486703010       -0.1814605829        1.2498886759
 H         -1.9884764789        0.3658416619        0.4983440511
 N         -3.2316739582       -1.7975114787        1.2611492553
 S         -3.4540312131       -1.8976929381       -0.4044919189
 O         -4.5692789908       -2.8116577548       -0.5541132963
 O         -2.2336419606       -2.2802458055       -1.0739798479
 C         -3.9899725135       -0.2693307391       -0.8811533898
 C         -3.2013545824        0.5137516748       -1.7005759198
 C         -3.6519253691        1.7805029014       -2.0413120565
 C         -4.8709980456        2.2361864780       -1.5636144234
 C         -5.6516032167        1.4329539926       -0.7454661322
 C         -5.2094570232        0.1663998993       -0.4002634836
 H         -5.7853795862       -0.4937935546        0.2265420012
 H         -6.5986908803        1.7911739595       -0.3755114666
 H         -5.2121029825        3.2242266573       -1.8304493044
 H         -3.0403790241        2.4050869173       -2.6735142547
 H         -2.2436091686        0.1398718314       -2.0299959538
 H         -3.5777018622       -2.6347485716        1.7091721096
 H         -1.7229535884       -2.9963980985        3.1082462680
 H          0.4501780847       -2.1685180238        3.9356314355
 H          1.4148972859       -0.0898287705        3.0171119970
 H          0.9159491579        2.0501711924        1.9781458759
 C         -0.5596228528        2.4857346183        0.4917915995
 C         -1.5366602411        3.2353942933        1.3459506358
 C         -0.3994215744        3.9613576797        0.6940514082
 H         -0.6129148424        4.6195260802       -0.1345364915
 H          0.4175710129        4.2956675259        1.3166921871
 H         -2.5349093884        3.3924737889        0.9668193234
 H         -1.4899244823        3.0746118201        2.4123469003
 H         -0.8933041014        2.1550234191       -0.4834582380
