  62
        -98.94291421
 C         -2.0564803996       -0.8922065000        0.5015274156
 C         -2.7670004932        0.1682485678        1.1240086127
 C         -4.1949944142        0.2716712212        0.8089229939
 C         -4.7621921605       -0.6336929487       -0.0083180648
 C         -6.2123441923       -0.6853740229       -0.4057061362
 C         -6.5710916364        0.2359396868       -1.5796070459
 C         -6.5968172604        1.7291076166       -1.2506453773
 H         -7.2248706075        1.8967122615       -0.3751250296
 H         -7.0717492385        2.2348363840       -2.0937233319
 C         -5.2122575309        2.3508130283       -1.0198298378
 H         -5.1405860358        3.2939153613       -1.5663531306
 H         -4.4424073018        1.6888975178       -1.4234224268
 C         -4.8869773182        2.6510844998        0.4435683242
 H         -5.5684301864        3.4166651283        0.8214320202
 H         -3.8706578836        3.0508582466        0.4935202637
 C         -4.9612472716        1.4307825665        1.3705654093
 H         -6.0006465742        1.1522083788        1.5436580167
 H         -4.5057503268        1.6984590249        2.3272612592
 H         -7.5646680221       -0.0540558572       -1.9289819936
 H         -5.8660259369        0.0547807294       -2.3940577119
 H         -6.8363966687       -0.4407610614        0.4543270764
 H         -6.4166257659       -1.7163852919       -0.7022571164
 O         -4.0563508197       -1.6492149033       -0.5667439908
 C         -2.6916687849       -1.7939098438       -0.3532709232
 O         -2.1961410498       -2.7531094943       -0.9760976863
 O         -2.2301910259        0.9868533054        1.9185824075
 C         -0.5767044484       -0.9933847644        0.8254017303
 C          0.2881840592       -0.3536603767       -0.2347826344
 C          0.2165761080       -0.7412420473       -1.5692662339
 C          1.0297027891       -0.1460455595       -2.5160596040
 C          1.9464889543        0.8243281520       -2.1494157254
 C          2.0335248134        1.2103419682       -0.8181404618
 C          1.1978810174        0.6294542981        0.1264258181
 H          1.2722400779        0.9507046307        1.1543086002
 N          2.9716499873        2.1759454417       -0.3997259915
 S          4.1182006852        1.6903509611        0.7219482811
 O          3.4748674064        1.3461428996        1.9627717189
 O          5.0806553558        2.7676338807        0.7693889333
 C          4.8591100340        0.2451208625       -0.0174285859
 C          6.0096561100        0.3969756687       -0.7666682754
 C          6.5444154228       -0.7089913295       -1.4072813298
 C          5.9145134583       -1.9396579167       -1.2991119317
 C          4.7580413371       -2.0746342908       -0.5464290801
 C          4.2216214674       -0.9740216080        0.1031555814
 H          3.3247451150       -1.0471631913        0.6963035212
 H          4.2655039019       -3.0302287726       -0.4643611558
 H          6.3266989532       -2.7996287591       -1.8029987471
 H          7.4453438919       -0.6075907457       -1.9906879582
 H          6.4661659833        1.3721480197       -0.8213638954
 H          3.4323267591        2.6501863129       -1.1643247334
 H          2.5869648142        1.2822580688       -2.8881697803
 H          0.9571179033       -0.4494066541       -3.5493975288
 H         -0.4854630524       -1.5092376921       -1.8552061984
 H         -0.4478930620       -0.4105268440        1.7482007565
 C         -0.1023346429       -2.4097149291        1.0899206154
 C          1.0965486633       -2.6189243905        1.9640581653
 C         -0.2681695214       -2.9933207224        2.4590065880
 H         -0.5198841301       -4.0395256969        2.5452946047
 H         -0.7242675910       -2.3711687173        3.2156063216
 H          1.7857667099       -3.4113379820        1.7152842533
 H          1.5651003343       -1.7448144229        2.3939406103
 H         -0.2375779958       -3.0733119673        0.2458525091
