  62
        -98.93966882
 C         -1.5004488096       -1.1210110696        0.6195038226
 C         -2.3854260387       -0.8780482436       -0.4580228529
 C         -2.9924114057        0.4645654849       -0.4928224924
 C         -2.6138327735        1.3941138660        0.4009483033
 C         -3.1729830714        2.7839957085        0.4878779732
 C         -4.3764509494        2.8440791511        1.4390060401
 C         -5.4246328440        1.7629869280        1.1755276545
 H         -4.9901029392        0.7855115965        1.3965571257
 H         -6.2405405099        1.9213261719        1.8838463393
 C         -5.9825985079        1.7562781709       -0.2543717141
 H         -7.0680817882        1.6472443525       -0.2065772351
 H         -5.7733622267        2.7110572770       -0.7380495443
 C         -5.4596255155        0.6190982122       -1.1339109722
 H         -6.0719057542        0.5803253119       -2.0388324891
 H         -5.5844406221       -0.3335676881       -0.6130724482
 C         -3.9960246942        0.7355286404       -1.5789204428
 H         -3.8194114442       -0.0254130392       -2.3453481350
 H         -3.8214737068        1.7164238843       -2.0269452457
 H         -4.0135606876        2.7282416158        2.4628069868
 H         -4.8365809747        3.8298768391        1.3504917539
 H         -2.3869201638        3.4436420083        0.8599621114
 H         -3.4634096497        3.1144836387       -0.5077219645
 O         -1.6961574789        1.1519736021        1.3697010053
 C         -1.1132559825       -0.0942380286        1.4875821539
 O         -0.2707174127       -0.1816222028        2.4041195842
 H          0.1620325942       -1.1216929149       -1.3174413268
 C          0.9727907327       -1.4839183245       -0.6987208347
 C          0.6880321269       -2.2178537354        0.4442499765
 C          1.7453298944       -2.6640106625        1.2268003021
 C          3.0532078292       -2.3646421587        0.8857707723
 C          3.3269172665       -1.5803195021       -0.2208577853
 C          2.2754858917       -1.1370710432       -1.0108276017
 N          2.5510640144       -0.2167903694       -2.0667712384
 S          2.2355853775        1.3549758595       -1.5167828933
 O          0.8686464504        1.4896822124       -1.0575400196
 O          2.6114946527        2.2356766087       -2.6023143334
 C          3.3754910198        1.5136040877       -0.1636287874
 C          4.6807801265        1.8712145579       -0.4412458706
 C          5.5902682669        1.9450058215        0.6011779091
 C          5.1810523371        1.6555072435        1.8945278904
 C          3.8668322400        1.2987816062        2.1553332452
 C          2.9499214936        1.2244015261        1.1180893954
 H          1.9210096962        0.9442956011        1.2901662556
 H          3.5433734415        1.0705394555        3.1582588189
 H          5.8894638309        1.7082603202        2.7061530472
 H          6.6126157147        2.2235596688        0.4027624996
 H          4.9484072397        2.0879587583       -1.4622999422
 H          1.9697474028       -0.3756754679       -2.8805056808
 H          4.3352167044       -1.2954096487       -0.4728558715
 H          3.8634589506       -2.7157184468        1.5053122380
 H          1.5345745493       -3.2211413411        2.1276644125
 C         -0.7501219472       -2.4281242395        0.8466048940
 H         -0.7584013547       -2.5962855367        1.9367628922
 C         -1.3807363270       -3.6471224636        0.1951578200
 C         -0.8418668715       -4.2677294311       -1.0551117336
 C         -0.6834677487       -4.9739549282        0.2560158489
 H         -1.2757983490       -5.8567376996        0.4421651024
 H          0.3045826879       -5.0021547239        0.6892930786
 H         -1.5536186447       -4.6444883635       -1.7733994114
 H          0.0340397305       -3.8252189947       -1.5048464382
 H         -2.4585243837       -3.6581449343        0.3093171720
 O         -2.6701987898       -1.7123970424       -1.3569693176
