  62
        -98.93668228
 C         -2.4316393049       -1.0733629819        0.4178134370
 C         -2.4864589309        0.0368709040       -0.4548198480
 C         -3.5298128639        1.0479652339       -0.1816037738
 C         -4.3512944499        0.8685907309        0.8690438122
 C         -5.4988155646        1.7345134716        1.3165212204
 C         -6.7453768309        1.5717650755        0.4319163828
 C         -6.4698975481        1.5489426714       -1.0691990742
 H         -7.4114634994        1.3212898261       -1.5759547121
 H         -5.7769565306        0.7361064412       -1.2939796848
 C         -5.9295518670        2.8527592396       -1.6516571851
 H         -6.6434770833        3.6558578156       -1.4556021010
 H         -5.8668624748        2.7221537071       -2.7351038439
 C         -4.5533088108        3.2913279873       -1.1466949890
 H         -4.6210439089        3.7357080201       -0.1574395978
 H         -4.1973543497        4.0794836501       -1.8166939290
 C         -3.4911408864        2.1965361734       -1.1610173893
 H         -2.5075024052        2.6626096579       -1.0261014514
 H         -3.4586136217        1.7423245540       -2.1579598041
 H         -7.4411357174        2.3795973108        0.6647687641
 H         -7.2254205864        0.6263032930        0.6959946437
 H         -5.7502274315        1.4200622649        2.3318465563
 H         -5.1872955384        2.7738782783        1.3599978076
 O         -4.2565332079       -0.2184870684        1.6879436909
 C         -3.3058962556       -1.1988542529        1.4989063212
 O         -3.3367898381       -2.1188091043        2.3411848509
 H          0.5663580730       -1.2358128707       -1.4597692428
 C          0.8394514502       -1.1358434212       -0.4213503089
 C         -0.0319557296       -1.5682447318        0.5652819836
 C          0.3383203963       -1.4095269580        1.8981572450
 C          1.5479185985       -0.8299838884        2.2302925293
 C          2.4094518757       -0.3854890105        1.2418833454
 C          2.0485446578       -0.5363286135       -0.0896269168
 N          2.9009188470       -0.0599849174       -1.0977894089
 S          4.5356666872       -0.4141846927       -1.0290884379
 O          5.0047134545       -0.3060382391       -2.3933746647
 O          4.7785214095       -1.6745740592       -0.3659913877
 C          5.2254658332        0.9203165687       -0.0725555756
 C          4.9516949979        2.2153113979       -0.4668433917
 C          5.4888491887        3.2643215392        0.2619576838
 C          6.2891939436        3.0025960981        1.3641324645
 C          6.5583484940        1.6968850183        1.7446063165
 C          6.0229170133        0.6430067748        1.0204328722
 H          6.1997179462       -0.3878879259        1.2831430288
 H          7.1809727915        1.4954509888        2.6014997150
 H          6.7052293903        3.8213321583        1.9297643623
 H          5.2809965693        4.2810553887       -0.0305368486
 H          4.3268164095        2.3774859614       -1.3293243961
 H          2.5322202235       -0.1674596453       -2.0311010756
 H          3.3516666662        0.0731471493        1.4937246611
 H          1.8224840375       -0.7175354906        3.2681697640
 H         -0.3427425842       -1.7415069855        2.6699168644
 C         -1.3833723608       -2.1618783912        0.2494611921
 H         -1.6087422589       -2.9147020292        1.0167800636
 C         -1.4645483510       -2.8187698997       -1.1124426733
 C         -0.7593293612       -4.1209702089       -1.3406516361
 C         -2.2557393604       -4.0807255634       -1.2698158217
 H         -2.8192852910       -4.2252257126       -2.1794460855
 H         -2.7373756517       -4.4821644558       -0.3900915019
 H         -0.2223152648       -4.5487258014       -0.5073179873
 H         -0.2935567169       -4.2968134543       -2.2985243832
 H         -1.4998081779       -2.1100578182       -1.9303656655
 O         -1.7114708535        0.1938561363       -1.4352857022
