  62
        -98.93792392
 C         -1.7993867405       -1.0956601488        0.2671967901
 C         -2.1293227502       -0.0869561491       -0.6666056703
 C         -3.5585602002        0.0413390511       -1.0085485004
 C         -4.4457872404       -0.7935098384       -0.4400322300
 C         -5.9396885004       -0.7965694082       -0.6118459100
 C         -6.6150291902        0.0305404025        0.4951215396
 C         -6.7459569998        1.5233428824        0.1952485790
 H         -7.5018790898        1.6684407322       -0.5793497411
 H         -7.1117634597        2.0065210028        1.1041712288
 C         -5.4559263697        2.2200417019       -0.2460423913
 H         -4.6225492598        1.8834657619        0.3734912089
 H         -5.5764078894        3.2907108020       -0.0693603717
 C         -5.1263218597        1.9969411412       -1.7295809012
 H         -4.9349978995        2.9607885209       -2.2059996816
 H         -5.9983457998        1.5737505312       -2.2280731110
 C         -3.8974238399        1.1167751808       -2.0042920908
 H         -4.0013532900        0.6575832904       -2.9932521006
 H         -3.0014399698        1.7447785105       -2.0460630811
 H         -6.0424495202       -0.1116722573        1.4151830497
 H         -7.6165328103       -0.3680059472        0.6690343998
 H         -6.2619644006       -1.8353894680       -0.5150019496
 H         -6.2150206603       -0.4342991885       -1.5977855002
 O         -4.0817827206       -1.7564166482        0.4512520004
 C         -2.7640007607       -1.9295372283        0.8312757605
 O         -2.5806968309       -2.8386964280        1.6656434808
 O         -1.2755316800        0.6785257205       -1.1877105106
 C         -0.3536639505       -1.3069628690        0.6780126702
 C          0.2401138998       -0.0228176589        1.2024210297
 C         -0.4746846400        0.7134801117        2.1440024694
 C          0.0324670402        1.8932015118        2.6515021089
 C          1.2660593003        2.3619921313        2.2352171487
 C          1.9965562002        1.6270604107        1.3095315690
 C          1.4866602199        0.4370420607        0.8067433495
 H          2.0638438198       -0.1111061098        0.0813869998
 N          3.2720694203        2.0528933803        0.9198190389
 S          3.9154558202        1.7157662095       -0.5833324210
 O          5.0368809904        2.6261936092       -0.6934180214
 O          2.9350594602        1.7954873393       -1.6396861510
 C          4.5441586398        0.0554131494       -0.4436272703
 C          5.1274412797       -0.3492938402        0.7407730099
 C          5.6566866994       -1.6273004303        0.8230684804
 C          5.6042781492       -2.4715146808       -0.2755884892
 C          5.0204433893       -2.0482736611       -1.4596034994
 C          4.4838772996       -0.7728498110       -1.5466620100
 H          4.0083865297       -0.4074106813       -2.4433680601
 H          4.9802525592       -2.7052397415       -2.3141940191
 H          6.0180320890       -3.4653009309       -0.2095240088
 H          6.1094017993       -1.9609713001        1.7428185306
 H          5.1524846599        0.3320588901        1.5744754196
 H          3.5466164105        2.9638223904        1.2558793185
 H          1.6601369706        3.2888337514        2.6233331583
 H         -0.5385075496        2.4577035722        3.3734730387
 H         -1.4418962901        0.3500856221        2.4648546295
 H         -0.3785724007       -2.0331648186        1.5041987105
 C          0.4290899593       -1.9088219596       -0.4707177995
 C          1.5804259491       -2.8278639198       -0.1965451091
 C          0.2966490590       -3.3764911597       -0.7409040089
 H          0.2695901589       -3.7112336201       -1.7669660888
 H         -0.3427832511       -3.9433491793       -0.0797181287
 H          2.4396447791       -2.7867457203       -0.8486561991
 H          1.8205450591       -3.0316351194        0.8358468510
 H          0.4922735195       -1.2440627500       -1.3257012898
