  62
        -98.94142030
 C         -1.2125652826       -1.1572655818       -0.0408713532
 C         -1.6450389172       -0.1041323681        0.7970716212
 C         -2.6500055984        0.8120862041        0.2358586490
 C         -3.0619556961        0.6391428959       -1.0315056134
 C         -4.0292717877        1.4817567699       -1.8249713640
 C         -5.3052621053        1.9562567184       -1.1156242878
 C         -5.8621378648        0.9869538981       -0.0625141769
 H         -6.9228561104        0.8213469235       -0.2596154694
 H         -5.3606976768        0.0209425788       -0.1421156571
 C         -5.7272017675        1.5168307353        1.3670465768
 H         -6.4414732842        0.9910746790        2.0051224162
 H         -5.9985932533        2.5747036313        1.3747655784
 C         -4.3467254157        1.3502178380        2.0008836824
 H         -4.1609357446        0.2932199755        2.2095264153
 H         -4.3524587851        1.8712559404        2.9612163941
 C         -3.1666843606        1.8726651098        1.1649715498
 H         -3.4305887554        2.7818869744        0.6298238847
 H         -2.3440553971        2.1019487649        1.8483090538
 H         -5.1228676194        2.9228465006       -0.6478596727
 H         -6.0541542813        2.1204570193       -1.8923180450
 H         -3.4834502472        2.3509269039       -2.2050093054
 H         -4.2967702593        0.8685629093       -2.6891016163
 O         -2.5921005887       -0.3696940415       -1.8189365341
 C         -1.6589773368       -1.2840154443       -1.3548522993
 O         -1.3193338807       -2.1412735777       -2.1928816640
 H          0.8482617921        0.0781401179       -0.6327079773
 C          1.4960009862       -0.7709855374       -0.7837549046
 C          1.1111265008       -2.0188862151       -0.3148601615
 C          1.9479573112       -3.1017928851       -0.5573739527
 C          3.1275915854       -2.9300685982       -1.2608582465
 C          3.5108616277       -1.6815385904       -1.7165278782
 C          2.6824382489       -0.5914538086       -1.4758481587
 N          3.0228146767        0.6941807197       -1.9204549639
 S          2.5940971899        2.0326314383       -1.0165143822
 O          1.1827465947        2.3003152103       -1.1430496442
 O          3.4768965693        3.0761669305       -1.4940515995
 C          3.0226936702        1.6095160649        0.6626796338
 C          2.0464476705        1.3507109230        1.6019087739
 C          2.4296643379        0.9776202749        2.8810081690
 C          3.7741293100        0.8728964872        3.1991139172
 C          4.7448083255        1.1459453044        2.2465286797
 C          4.3678910162        1.5142714279        0.9661346092
 H          5.0916490009        1.7458861603        0.2017041301
 H          5.7904230494        1.0696670375        2.4974890509
 H          4.0656900854        0.5798389643        4.1953475449
 H          1.6651118784        0.7651543372        3.6114212076
 H          1.0042973001        1.4330355428        1.3356685876
 H          3.9448242104        0.7821455013       -2.3207433442
 H          4.4325445499       -1.5504442555       -2.2620788464
 H          3.7630946403       -3.7814261975       -1.4513234022
 H          1.6721447029       -4.0813281274       -0.2026661735
 C         -0.1702885912       -2.1288838953        0.4765505729
 H          0.0467532127       -1.8013899257        1.5055125569
 C         -0.7259461794       -3.5378250154        0.5218458716
 C         -0.2952023543       -4.4923956291        1.5942096640
 C         -1.6731748641       -3.9053017389        1.6236533407
 H         -2.5143809232       -4.5406914634        1.3905867096
 H         -1.8911836345       -3.1470818251        2.3617620849
 H          0.4185005262       -4.1388454825        2.3228477266
 H         -0.1915517010       -5.5370676461        1.3421810498
 H         -0.9314015948       -3.9330984045       -0.4665668984
 O         -1.1984408821        0.0731551152        1.9630917510
