  62
        -98.94049842
 C         -1.1948562762       -1.4040783427        0.6553193372
 C         -1.9245650951       -1.0832557850       -0.5182376911
 C         -3.0099807751       -0.0999378828       -0.3492200803
 C         -3.1642880025        0.5227393547        0.8318007855
 C         -4.2277255488        1.5368893572        1.1396656504
 C         -3.7760783439        2.9685697907        0.8227418198
 C         -3.1591969503        3.1283392127       -0.5659041009
 H         -2.9078263116        4.1838528089       -0.6883023062
 H         -2.2282952593        2.5598194741       -0.6088920764
 C         -4.0653004609        2.6852052456       -1.7219540147
 H         -4.0265094040        3.4410099302       -2.5089886158
 H         -5.1004030445        2.6233352206       -1.3839483946
 C         -3.6586507009        1.3554919453       -2.3583420987
 H         -4.2105904442        1.2429715225       -3.2952990093
 H         -2.5944631148        1.3752457225       -2.6054539285
 C         -3.9356642384        0.1041787631       -1.5165516252
 H         -4.9747528502        0.1134108416       -1.1788145121
 H         -3.7938529192       -0.7656564205       -2.1647891402
 H         -4.6399880903        3.6288732975        0.9190610016
 H         -3.0361164988        3.2728123677        1.5666720230
 H         -4.4654838322        1.4674501254        2.2028578590
 H         -5.1198307436        1.2943142662        0.5643337730
 O         -2.3364773034        0.3065966202        1.8876262615
 C         -1.3624784072       -0.6773031002        1.8379118454
 O         -0.7139802687       -0.7991872204        2.8976625442
 O         -1.7229927178       -1.5975700937       -1.6461115686
 C         -0.1489536788       -2.5071650405        0.6997215604
 C          0.9016366047       -2.2935851141       -0.3600475126
 C          0.8696842853       -2.9221549413       -1.5978821007
 C          1.8512152328       -2.6542415081       -2.5355995838
 C          2.8790286861       -1.7707974523       -2.2579670801
 C          2.9302933551       -1.1520003322       -1.0128504401
 C          1.9415275953       -1.4174099430       -0.0782985046
 H          1.9927501693       -0.9539181474        0.8946225918
 N          3.9893009089       -0.2962284851       -0.6918724434
 S          3.9692760138        0.8140910567        0.5443042961
 O          5.1807426072        1.5771919839        0.3363188723
 O          3.8494934680        0.1490825977        1.8170229546
 C          2.5661156617        1.8756022446        0.2530778035
 C          1.4480782302        1.8054646024        1.0583845639
 C          0.3909278654        2.6674673689        0.8124838347
 C          0.4698366611        3.5827399373       -0.2251092216
 C          1.5989577127        3.6390929721       -1.0281529582
 C          2.6567110634        2.7783855959       -0.7891492552
 H          3.5601378686        2.8070127744       -1.3760913750
 H          1.6565726933        4.3530846868       -1.8337511111
 H         -0.3508888882        4.2588346550       -0.4040386371
 H         -0.4864159898        2.6126351188        1.4386192701
 H          1.4102081369        1.0929059164        1.8683634445
 H          4.6000099246       -0.0393806256       -1.4512179511
 H          3.6433916073       -1.5673661108       -2.9920842845
 H          1.8142412219       -3.1386042928       -3.4995717008
 H          0.0629344954       -3.5976730234       -1.8296012526
 H          0.3442292195       -2.3822733751        1.6775005984
 C         -0.7140394298       -3.9210154412        0.6866007126
 C         -1.9270523082       -4.2585320191        1.5010759764
 C         -1.9882336933       -4.3146075602        0.0057018414
 H         -2.0271986287       -5.2853333258       -0.4668181041
 H         -2.5462331298       -3.5550085671       -0.5163457383
 H         -1.9377593190       -5.1835732283        2.0575077995
 H         -2.4275412176       -3.4411740411        2.0010610387
 H          0.0815152931       -4.6606022374        0.6809844244
