  62
        -98.94832180
 C         -1.2229995128       -1.4885840883        0.4973619446
 C         -2.2005465182       -1.2446282565       -0.4966026771
 C         -3.2992774406       -0.3500091917       -0.1068173616
 C         -3.3105355339        0.1852425901        1.1274539011
 C         -4.3335323273        1.1619916896        1.6292089931
 C         -3.8870999482        2.6094679807        1.3801674613
 C         -3.4145093884        2.8778186411       -0.0490898163
 H         -2.4854014510        2.3295048664       -0.2273444691
 H         -3.1646720583        3.9396333333       -0.1123066119
 C         -4.4403861386        2.5271969156       -1.1361986535
 H         -4.4638581021        3.3391223773       -1.8661430863
 H         -5.4358701444        2.4580586927       -0.6955765189
 C         -4.1370593397        1.2423551551       -1.9091364452
 H         -3.1025636034        1.2649911020       -2.2624523126
 H         -4.7842603559        1.2147042023       -2.7899549781
 C         -4.3539368577       -0.0658937394       -1.1384588371
 H         -4.2977938963       -0.8878233083       -1.8581739291
 H         -5.3484568942       -0.0685180941       -0.6879704101
 H         -3.0596374848        2.8400928359        2.0556520127
 H         -4.7194509817        3.2738151851        1.6209633142
 H         -4.4576153224        1.0103761019        2.7029581565
 H         -5.2833934978        0.9732602544        1.1327055903
 O         -2.3522587053       -0.0699162961        2.0544959139
 C         -1.2714778326       -0.8816509683        1.7516110679
 O         -0.4323761045       -0.9877126371        2.6705621227
 O         -2.1583188029       -1.7429187456       -1.6519056094
 C         -0.0148305589       -2.3472274137        0.1733052988
 C          0.7929494170       -1.7016764413       -0.9280802692
 C          1.4288780436       -2.4135248786       -1.9373850488
 C          2.1748666536       -1.7489884023       -2.8960413193
 C          2.3277586144       -0.3745066509       -2.8566783084
 C          1.7008450691        0.3450674295       -1.8461899892
 C          0.9376013098       -0.3219531351       -0.9028739162
 H          0.4325822587        0.2520208919       -0.1414616682
 N          1.8281227488        1.7396205332       -1.7447429690
 S          1.9545758823        2.4180185611       -0.2182944503
 O          0.6646024267        2.4635501163        0.4227411832
 O          2.5857341876        3.7002499841       -0.4508448577
 C          3.0802382458        1.3428560488        0.6544084835
 C          2.6383784497        0.5042691383        1.6567213873
 C          3.5463752684       -0.3561451126        2.2555763784
 C          4.8702745725       -0.3642315516        1.8469667631
 C          5.3012681020        0.4924497729        0.8448860831
 C          4.3991976114        1.3513908161        0.2405704325
 H          4.6965544312        2.0395120047       -0.5340843013
 H          6.3329135906        0.4895809544        0.5322320927
 H          5.5689531116       -1.0399122777        2.3145275490
 H          3.2013260820       -1.0174918154        3.0346276787
 H          1.6027545890        0.5181600647        1.9604053034
 H          2.4759186290        2.1576707870       -2.3962507221
 H          2.9157706063        0.1387179399       -3.6017843991
 H          2.6538266649       -2.3121412744       -3.6823865093
 H          1.3332794752       -3.4861285353       -1.9784476902
 H          0.6077875499       -2.3492427182        1.0811191849
 C         -0.4294363275       -3.7705989230       -0.1354755450
 C          0.4799558633       -4.9123018844        0.2036017175
 C         -0.7671781292       -4.6851937204        1.0023225395
 H         -1.5914776399       -5.3723456348        0.8847775530
 H         -0.6715965005       -4.2868601545        2.0023002019
 H          0.5108222601       -5.7617693598       -0.4619302862
 H          1.4260280435       -4.6784275286        0.6679458136
 H         -1.0340938087       -3.8420230685       -1.0318067070
