  62
        -98.93801613
 C         -2.3219402087       -1.3674850560        0.0074913233
 C         -3.0236247788       -0.5897009336        0.9580324057
 C         -3.7785238296        0.5566222165        0.4312431595
 C         -3.7490241784        0.8075479234       -0.8904206506
 C         -4.4008487312        1.9781628536       -1.5701373157
 C         -3.5496445703        3.2478616554       -1.3658973043
 C         -4.2226335169        4.3305830061       -0.5211316399
 H         -3.4563330686        5.0645352064       -0.2622528979
 H         -4.9730898896        4.8386497539       -1.1302861724
 C         -4.9085551145        3.8505716500        0.7616303967
 H         -5.1001283080        4.7373367374        1.3694191023
 H         -5.8823405504        3.4229090513        0.5189446985
 C         -4.1233463753        2.8369201990        1.6040008458
 H         -3.0539582128        2.9198390472        1.4054334092
 H         -4.2704050153        3.0838765967        2.6574319945
 C         -4.5648555224        1.3725867396        1.4198305625
 H         -4.4453050119        0.8490365861        2.3730036197
 H         -5.6258788930        1.3411276467        1.1581741703
 H         -2.6029293824        2.9567586242       -0.9040218765
 H         -3.2998609110        3.6786065830       -2.3368108411
 H         -4.4728342570        1.7376616469       -2.6309558516
 H         -5.4040004043        2.1218176787       -1.1749665364
 O         -3.0430249360        0.0512829632       -1.7703470407
 C         -2.3024477049       -1.0441939385       -1.3493083282
 O         -1.6937648963       -1.6319940115       -2.2620528172
 O         -3.0149943634       -0.8401373695        2.1947191541
 C         -1.5090405988       -2.5571131991        0.4902247412
 C         -0.0459243261       -2.2783164828        0.2479372421
 C          0.7874321091       -3.0955310801       -0.5025795590
 C          2.1091408262       -2.7401274705       -0.7140069760
 C          2.6281428580       -1.5756321625       -0.1791886966
 C          1.8043557997       -0.7545167728        0.5804628714
 C          0.4831669072       -1.1127475612        0.7905768654
 H         -0.1609463771       -0.4687488673        1.3776596548
 N          2.3250827872        0.4303442598        1.1379005964
 S          3.0073097903        1.5360241813        0.0693609643
 O          2.8862169063        2.8201835717        0.7260289931
 O          2.4230907296        1.4305500580       -1.2482084376
 C          4.7238317030        1.0668935945        0.0235474951
 C          5.3173297572        0.7400778097       -1.1797447488
 C          6.6559728645        0.3793138362       -1.1896987423
 C          7.3724836938        0.3524398630       -0.0029959766
 C          6.7616212940        0.6856875257        1.1969645036
 C          5.4243830134        1.0483085752        1.2138967039
 H          4.9122699221        1.3180885608        2.1223488195
 H          7.3221054651        0.6634895021        2.1175842051
 H          8.4133429015        0.0700141000       -0.0136341618
 H          7.1322293436        0.1200026220       -2.1215582152
 H          4.7177182393        0.7691056651       -2.0757359926
 H          1.6702171060        0.9021274702        1.7459907879
 H          3.6549077877       -1.2943633932       -0.3475304333
 H          2.7438936381       -3.3802148606       -1.3075000353
 H          0.3994606042       -4.0026151081       -0.9352622756
 H         -1.6721134898       -2.5984408616        1.5772165510
 C         -2.0043597431       -3.8464129612       -0.1268213575
 C         -1.7574723058       -5.1505863518        0.5690997523
 C         -3.1395747612       -4.5735551716        0.5272000431
 H         -3.8792090013       -5.0452760025       -0.1020492568
 H         -3.5459783196       -4.1481520091        1.4332607274
 H         -1.5490858811       -6.0234982850       -0.0305299662
 H         -1.2248013870       -5.1218701089        1.5074491059
 H         -1.9812265270       -3.8286480815       -1.2102111829
