  62
        -98.94313319
 C          2.5838678201        0.0488180885        0.3653046812
 C          2.7003127011        1.0630512990       -0.6209703982
 C          2.1481661018        2.3761236391       -0.2810797178
 C          1.5730398714        2.5606625289        0.9203342521
 C          0.9195368220        3.8256643090        1.4059043325
 C         -0.5295531877        3.9789809001        0.9225159720
 C         -0.6846828870        4.3748441709       -0.5469138279
 H         -0.0432722564        5.2303771006       -0.7629471872
 H         -1.7186752567        4.6983957616       -0.6822061481
 C         -0.3919035473        3.2414969212       -1.5401475083
 H         -1.1658200670        3.2288052821       -2.3118187986
 H         -0.4439731880        2.2805976410       -1.0220821388
 C          0.9522311331        3.3539995608       -2.2603610578
 H          0.9473548438        4.2331476811       -2.9095968473
 H          1.0756581828        2.4685123610       -2.8891635782
 C          2.1692745928        3.4452447396       -1.3318834773
 H          2.2156948232        4.4300219494       -0.8671368668
 H          3.0693770629        3.2981189394       -1.9343900370
 H         -1.0010942875        4.7483396401        1.5389712922
 H         -1.0541591884        3.0359863503        1.0999632013
 H          1.5063200826        4.6907983588        1.0950004431
 H          0.9183479215        3.7774164785        2.4970484424
 O          1.5332571905        1.5859661184        1.8639517516
 C          1.9927662398        0.3012036483        1.6039177611
 O          1.8340792290       -0.4794765221        2.5648461407
 O          3.2455098114        0.8721764892       -1.7424013381
 C          3.0053333595       -1.3447480615       -0.0707864493
 C          1.8323713894       -1.9890026705       -0.7758310801
 C          1.9709995995       -2.5778221399       -2.0267513503
 C          0.8671600394       -3.0818172889       -2.6925113510
 C         -0.3970302007       -2.9735021985       -2.1421959214
 C         -0.5434087208       -2.3936961690       -0.8865873812
 C          0.5720971892       -1.9437197200       -0.1981711005
 H          0.4378058191       -1.5109415504        0.7818905896
 N         -1.8057255510       -2.2363455485       -0.2940632016
 S         -2.0708181505       -0.8131375388        0.5874558190
 O         -1.3294477596        0.2810341110        0.0065586399
 O         -1.8429851211       -1.0910595997        1.9834413290
 C         -3.8186473302       -0.5801332977        0.3145250085
 C         -4.7110976709       -1.3573010075        1.0292241378
 C         -6.0686010808       -1.2021540466        0.7981699373
 C         -6.5087703999       -0.2779683958       -0.1381102124
 C         -5.6015451091        0.4963340740       -0.8453817316
 C         -4.2419445493        0.3446749831       -0.6206473112
 H         -3.4986363388        0.9275155229       -1.1409841106
 H         -5.9460348484        1.2170424345       -1.5692810214
 H         -7.5658686297       -0.1581799251       -0.3150961227
 H         -6.7766666513       -1.8001599664        1.3487345768
 H         -4.3213064016       -2.0530960481        1.7539807576
 H         -2.5701570808       -2.4396900978       -0.9235487420
 H         -1.2639872007       -3.3281051677       -2.6785616419
 H          0.9882938395       -3.5358460885       -3.6642542712
 H          2.9464532096       -2.6145715503       -2.4883477700
 H          3.7997875998       -1.1964451616       -0.8160507990
 C          3.5371967785       -2.2426204324        1.0254354104
 C          4.4578875480       -3.3675429427        0.6603692902
 C          4.9872089684       -2.1736872434        1.3953867610
 H          5.2549831880       -2.2785426341        2.4357217711
 H          5.6066193691       -1.4736896335        0.8538104016
 H          4.3639700373       -4.3002028829        1.1947437197
 H          4.7254180283       -3.4798808124       -0.3792186897
 H          2.8278406881       -2.4097391323        1.8254621101
