  62
        -98.94267615
 C         -1.2416836078       -1.5604927047        0.5612259326
 C         -2.1887959167       -1.2481822876       -0.4412120529
 C         -3.1724143124       -0.2018818600       -0.1075949601
 C         -3.1065431631        0.4004973733        1.0923278387
 C         -3.9310310998        1.5577742317        1.5830650588
 C         -3.2087713149        2.8850346124        1.2893371330
 C         -3.5200092091        3.4965249572       -0.0752187176
 H         -4.5526712069        3.8531363207       -0.0865025005
 H         -2.8670841815        4.3643356140       -0.1948175699
 C         -3.3056113820        2.5590796411       -1.2661518503
 H         -2.3717535348        2.0091166896       -1.1277203373
 H         -3.1818824401        3.1756958404       -2.1590744442
 C         -4.4751648040        1.5884567904       -1.4893603773
 H         -4.7854132546        1.6345281708       -2.5353974098
 H         -5.3285397144        1.9217388163       -0.8985146082
 C         -4.1778922935        0.1134553990       -1.1810368044
 H         -5.1172294711       -0.3952003233       -0.9389978337
 H         -3.7802515155       -0.3705097972       -2.0787984002
 H         -3.4792861946        3.6122311728        2.0580958533
 H         -2.1309374420        2.7124170759        1.3638403229
 H         -4.9233144253        1.5434047355        1.1419204542
 H         -4.0231814218        1.4417852170        2.6650065291
 O         -2.1869478413        0.0586911016        2.0357641854
 C         -1.2184225468       -0.8946952518        1.7851903692
 O         -0.4019577290       -1.0594236183        2.7161825424
 O         -2.2032905200       -1.8002261700       -1.5732066020
 C         -0.1165408909       -2.5344245779        0.2663444676
 C          0.7562676363       -1.9868689765       -0.8407096135
 C          1.4148968601       -2.7881403773       -1.7653343609
 C          2.2124081441       -2.2149045226       -2.7414380282
 C          2.3836122119       -0.8436666911       -2.8124159360
 C          1.7311378405       -0.0342001738       -1.8894769462
 C          0.9338523288       -0.6133185213       -0.9169776678
 H          0.4145802206        0.0281753982       -0.2236114569
 N          1.8490858710        1.3622126936       -1.9234887770
 S          1.7885674916        2.2582946462       -0.5143644560
 O          0.4554466176        2.2664985189        0.0327817543
 O          2.3196129510        3.5488740546       -0.8990124664
 C          2.9380781117        1.4494320533        0.5840850708
 C          2.4993256141        0.6916876985        1.6498441970
 C          3.4365039318        0.0429610555        2.4399738757
 C          4.7871454189        0.1625543304        2.1552964573
 C          5.2136436060        0.9352742301        1.0851108878
 C          4.2825973346        1.5817789710        0.2903533318
 H          4.5729801837        2.2021730329       -0.5418993117
 H          6.2651806778        1.0326267462        0.8686277921
 H          5.5097555024       -0.3466742319        2.7731775281
 H          3.0929223330       -0.5545821322        3.2695046907
 H          1.4442841189        0.6065334024        1.8597174629
 H          2.5221954255        1.7264490688       -2.5805441304
 H          3.0022020109       -0.4023841317       -3.5785011299
 H          2.7120568695       -2.8476124003       -3.4591541507
 H          1.2960398559       -3.8587329395       -1.7273092149
 H          0.4945533680       -2.5769480256        1.1811341638
 C         -0.6529506818       -3.9205742587       -0.0250118509
 C          0.1308230197       -5.1350561543        0.3703758406
 C         -1.1143081676       -4.7704873987        1.1196381080
 H         -1.9968152532       -5.3782105026        0.9881305321
 H         -1.0129617127       -4.3587342115        2.1136008705
 H          0.1018607660       -5.9995134671       -0.2757410568
 H          1.0785347148       -4.9821855059        0.8643867033
 H         -1.2315604451       -3.9573113234       -0.9403646403
