  62
        -98.94571093
 C         -0.9822089466       -1.2166764145       -0.3813525937
 C         -1.9204093263       -1.3105630232        0.6783995657
 C         -2.7159922748       -0.1102902982        0.9618394306
 C         -2.4906409478        1.0062416111        0.2466919772
 C         -3.2447830638        2.2946352373        0.4034274770
 C         -4.4596797756        2.3467333555       -0.5333833937
 C         -5.3363702043        1.0960308492       -0.4738856446
 H         -6.1790936756        1.2563337438       -1.1496740475
 H         -4.7700826766        0.2458416599       -0.8605728214
 C         -5.8625332823        0.7562483118        0.9275401782
 H         -6.9225166205        0.5044998144        0.8528207376
 H         -5.7821580040        1.6293359491        1.5761569192
 C         -5.1689541932       -0.4336126885        1.5938934997
 H         -5.7550976359       -0.7218121143        2.4706596996
 H         -5.1642808202       -1.2855463239        0.9093418566
 C         -3.7301931639       -0.1900392835        2.0678745795
 H         -3.6927371806        0.7077765896        2.6892102120
 H         -3.4326703064       -1.0432973338        2.6848242572
 H         -4.1015737967        2.4648424655       -1.5584349432
 H         -5.0558703893        3.2243402737       -0.2769262534
 H         -3.5645364713        2.3965177241        1.4389136123
 H         -2.5722988346        3.1193800544        0.1608200255
 O         -1.5700496459        1.0711154203       -0.7444405911
 C         -0.7925258801       -0.0278691933       -1.0875329209
 O          0.0037891459        0.2049183123       -2.0170495747
 H          1.4782177071       -0.3082728910       -0.2102706459
 C          1.8701513981       -1.2162996744        0.2174629754
 C          1.1753274185       -2.4072603734        0.0769844119
 C          1.7221007300       -3.5630348035        0.6246513526
 C          2.9274114449       -3.5202032971        1.3015037061
 C          3.5971756119       -2.3214202143        1.4723436627
 C          3.0576071715       -1.1611924786        0.9313675171
 N          3.6884205828        0.0825875616        1.0856209243
 S          2.7393464925        1.4332438736        1.3793958760
 O          3.6324984554        2.3554685292        2.0537651592
 O          1.5345422899        1.0911052832        2.1017854784
 C          2.3459528125        2.1072079394       -0.2179623968
 C          3.2648666285        2.0150328777       -1.2432813165
 C          2.9593907570        2.5925438269       -2.4646193056
 C          1.7526296148        3.2520378289       -2.6369172422
 C          0.8440380216        3.3402709156       -1.5951852753
 C          1.1429465314        2.7647534334       -0.3717286739
 H          0.4563593233        2.7917090160        0.4607756626
 H         -0.1012041404        3.8404545527       -1.7335588610
 H          1.5132308023        3.6932646253       -3.5916843057
 H          3.6600026632        2.5202881841       -3.2810691798
 H          4.1887987617        1.4862074622       -1.0771851151
 H          4.5150781981        0.0759958154        1.6659285697
 H          4.5237826156       -2.2807402692        2.0243053135
 H          3.3406279109       -4.4251350212        1.7202161453
 H          1.1887872175       -4.4970155886        0.5312252925
 C         -0.1459399608       -2.4521305081       -0.6573884184
 H         -0.7218755676       -3.2925146850       -0.2444995038
 C          0.0919819648       -2.7132259061       -2.1330788956
 C          0.2995405386       -4.1165243648       -2.6143630755
 C         -0.9716089369       -3.3927443793       -2.9404606937
 H         -1.1378448834       -3.0612001341       -3.9541042784
 H         -1.8738182997       -3.6906078149       -2.4257775979
 H          1.0123516445       -4.2862864750       -3.4063518200
 H          0.2524474941       -4.9126276319       -1.8873375961
 H          0.6545539994       -1.9247296981       -2.6157861322
 O         -2.0886345071       -2.3624796420        1.3549591659
