  62
        -98.93687412
 C          2.1519236946        0.9831184917       -0.0370523767
 C          2.8912942007        0.3056555785        0.9599351840
 C          3.7217456141       -0.8179285007        0.5007914858
 C          3.7059901541       -1.1528403037       -0.8026135457
 C          4.5514397985       -2.2198869962       -1.4379923626
 C          5.9932277040       -1.7060419001       -1.6259314412
 C          7.0394616918       -2.4457040501       -0.7919893324
 H          7.2351133446       -3.4180899995       -1.2487873587
 H          7.9643607314       -1.8670919318       -0.8397247058
 C          6.6758196370       -2.6834868678        0.6768617426
 H          7.5966465963       -2.9680326530        1.1903967715
 H          6.0005460539       -3.5369484660        0.7549355545
 C          6.0493259497       -1.4929574647        1.4143141377
 H          6.4525118572       -1.4716261073        2.4288870200
 H          6.3336794416       -0.5533450004        0.9401783564
 C          4.5158147685       -1.5542980601        1.5444361898
 H          4.1940167056       -2.5991502626        1.5798143325
 H          4.2272172938       -1.0912279583        2.4929857757
 H          6.2741279464       -1.7872819895       -2.6769647513
 H          6.0127459916       -0.6429842097       -1.3770074165
 H          4.1034178460       -2.4567664251       -2.4031497170
 H          4.5412815546       -3.1147332738       -0.8195704360
 O          2.9572872788       -0.4961771765       -1.7262232708
 C          2.1629101410        0.5854315126       -1.3739398629
 O          1.5299234492        1.0885356786       -2.3197163890
 O          2.8518035772        0.6210028782        2.1814012160
 C          1.2819571972        2.1606546917        0.3613031664
 C         -0.1651045325        1.8836656652        0.0326999004
 C         -1.0053748589        2.8170084900       -0.5594978057
 C         -2.3282256004        2.5032613577       -0.8209911927
 C         -2.8419940783        1.2610838050       -0.4989883149
 C         -2.0147361604        0.3242074220        0.1070489880
 C         -0.6926174869        0.6438714490        0.3734363243
 H         -0.0504687924       -0.0878685160        0.8495781306
 N         -2.5235572965       -0.9464885896        0.4295585668
 S         -3.9473371883       -1.0281508558        1.3163340315
 O         -4.1046527351        0.1251419374        2.1721149679
 O         -3.9080312555       -2.3160626846        1.9744782054
 C         -5.2253307313       -1.0483703877        0.0772063139
 C         -6.2515568725       -0.1256383967        0.1313965344
 C         -7.2419930437       -0.1677085237       -0.8376766285
 C         -7.1888372769       -1.1265148963       -1.8376896340
 C         -6.1522854226       -2.0474017792       -1.8765699068
 C         -5.1600952807       -2.0121142319       -0.9099431376
 H         -4.3399088140       -2.7105729273       -0.9030988923
 H         -6.1136216638       -2.7910837373       -2.6561913291
 H         -7.9595115456       -1.1567293906       -2.5916356443
 H         -8.0485620030        0.5470939356       -0.8091355051
 H         -6.2473524580        0.6055615019        0.9238961124
 H         -1.8320083233       -1.5739712404        0.8136886824
 H         -3.8690181139        1.0109875510       -0.7089623011
 H         -2.9673079321        3.2368138761       -1.2881637861
 H         -0.6240541694        3.7901626835       -0.8212253233
 H          1.3709897563        2.2334055423        1.4561299990
 C          1.8105756483        3.4390604670       -0.2550450904
 C          1.6189077758        4.7518106166        0.4421482257
 C          2.9775507912        4.1223479869        0.3904465065
 H          3.7306826627        4.5664449570       -0.2429555271
 H          3.3726828800        3.6799824613        1.2935273700
 H          1.4414567749        5.6325364561       -0.1563905274
 H          1.0935562918        4.7452627012        1.3853065678
 H          1.7770372791        3.4217330907       -1.3385902624
