  62
        -98.94050177
 C          1.1399841272        1.2068310882        0.5170309871
 C          1.6537040673        0.7587905443       -0.7223311234
 C          2.4985266693       -0.4499790502       -0.6755318423
 C          2.6309552606       -1.1132956120        0.4854725959
 C          3.4800375316       -2.3237453740        0.7587190208
 C          4.8536128673       -1.9043164718        1.3098331877
 C          5.9070839695       -1.5995548157        0.2452890459
 H          6.7790662983       -1.1888650221        0.7595548055
 H          6.2178917506       -2.5327301178       -0.2293303448
 C          5.4725093312       -0.6171922636       -0.8459193308
 H          4.9266210554        0.2143688063       -0.3966277105
 H          6.3747925811       -0.2026353703       -1.2998270626
 C          4.6209811343       -1.2716861446       -1.9441667275
 H          5.0406061248       -1.0231090289       -2.9211016911
 H          4.6892768599       -2.3550979349       -1.8469434132
 C          3.1442520573       -0.8470698511       -1.9749306902
 H          3.0307510132        0.0297286294       -2.6199829520
 H          2.5562948989       -1.6478973472       -2.4345037133
 H          5.2372276110       -2.7054174983        1.9449033539
 H          4.7068967298       -1.0268506448        1.9449220602
 H          2.9610645892       -2.9033127179        1.5246756940
 H          3.5897700547       -2.9337583297       -0.1329326311
 O          2.0122341651       -0.7145103653        1.6306109397
 C          1.2800201337        0.4532154264        1.6832455564
 O          0.7973913578        0.7087960688        2.8067885683
 H         -1.5257121050        0.9398700207        1.6498797925
 C         -1.8721248086        1.3775749537        0.7219141346
 C         -1.0329333574        2.2490545734        0.0363442824
 C         -1.4787294898        2.7982035423       -1.1574981342
 C         -2.7342651605        2.4781983718       -1.6487720564
 C         -3.5675870162        1.6127506139       -0.9634447003
 C         -3.1271986783        1.0579272147        0.2319152353
 N         -3.9612243913        0.1515726747        0.9287792155
 S         -4.1859298578       -1.3249522794        0.1705676988
 O         -4.9097631135       -1.1076596412       -1.0551905515
 O         -4.8210151130       -2.1779102603        1.1485539021
 C         -2.5423636965       -1.9189909317       -0.1867528587
 C         -1.9419042887       -2.7947381955        0.6950847359
 C         -0.6503648967       -3.2244487963        0.4376544414
 C          0.0202164233       -2.7598149678       -0.6827812068
 C         -0.5896104626       -1.8657575614       -1.5489946432
 C         -1.8849873969       -1.4415509280       -1.3032348940
 H         -2.3915710481       -0.7565632532       -1.9632376626
 H         -0.0598295806       -1.4867448714       -2.4085016593
 H          1.0252278159       -3.0959170672       -0.8813595826
 H         -0.1695076297       -3.9156704745        1.1111633163
 H         -2.4998122024       -3.1334617195        1.5535758635
 H         -3.6459379521       -0.0159584589        1.8748412337
 H         -4.5393966953        1.3403827015       -1.3419434916
 H         -3.0680307916        2.9095593098       -2.5802899570
 H         -0.8389948175        3.4653772562       -1.7107008787
 C          0.3356315225        2.4942638855        0.6225334899
 H          0.2047242056        2.6746884773        1.6989228381
 C          1.0667723824        3.6732645190        0.0195319654
 C          0.6492287540        5.0631425984        0.3917790032
 C          1.9475843013        4.5101848780        0.8957832811
 H          2.8680442605        4.8954832020        0.4834683123
 H          2.0176143257        4.2406854102        1.9398997529
 H          0.6781828676        5.8317174335       -0.3653213775
 H         -0.1636557962        5.1685986137        1.0944659177
 H          1.4020058724        3.4962807823       -0.9943829182
 O          1.4435628811        1.3388112147       -1.8182703697
