  62
        -98.93034796
 C         -2.3607455939       -0.9195420873        0.7420223635
 C         -3.4221510575       -0.9456603456       -0.1946706339
 C         -4.5617906732       -0.0620865093        0.1006382038
 C         -4.5468783028        0.7138232162        1.1981938633
 C         -5.6427845217        1.6316949100        1.6718039558
 C         -5.9663644014        2.8346902841        0.7648960990
 C         -7.1083230163        2.5889366415       -0.2290268172
 H         -7.7490238035        1.7970459923        0.1608969245
 H         -7.7232629629        3.4894016946       -0.2866469381
 C         -6.6847073254        2.2454036969       -1.6603724488
 H         -7.5601575821        1.8546298156       -2.1836151225
 H         -6.3783639142        3.1610207647       -2.1714795693
 C         -5.5392858821        1.2417233288       -1.7944489043
 H         -4.5916125349        1.7303570109       -1.5549212847
 H         -5.4718748609        0.9387308541       -2.8412793813
 C         -5.6745599667       -0.0099009623       -0.9057562684
 H         -6.6425469486       -0.0256199519       -0.4073273003
 H         -5.5862626900       -0.9104779319       -1.5165486413
 H         -6.2586401024        3.6553069645        1.4220557734
 H         -5.0641000872        3.1475272835        0.2399421005
 H         -6.5492949620        1.0424903118        1.8282420030
 H         -5.3118889059        1.9990592616        2.6453726143
 O         -3.4990684557        0.7209415942        2.0671747739
 C         -2.3903651440       -0.0773606980        1.8579727304
 O         -1.5062904508        0.0397750809        2.7312542469
 H          1.2397343050       -0.5926486712        1.1794480980
 C          1.0386085244       -0.5717358486        0.1164029009
 C         -0.1389423516       -1.1292537665       -0.3608955400
 C         -0.3953087147       -1.0799491422       -1.7268789084
 C          0.5093614833       -0.4829438442       -2.5860580999
 C          1.6812200395        0.0755726647       -2.1068227026
 C          1.9452921279        0.0344916222       -0.7444674202
 N          3.1223776604        0.6204718225       -0.2443639737
 S          4.5504806206        0.3344414902       -1.1015587468
 O          4.6194895194        1.2701506447       -2.1960031381
 O          4.6413786868       -1.0631074400       -1.4599173551
 C          5.7772581187        0.7449624132        0.1233169644
 C          6.1002742718        2.0738251936        0.3226050600
 C          7.0380123677        2.3963414418        1.2905446604
 C          7.6325791009        1.3911747453        2.0390158146
 C          7.2987625211        0.0620467652        1.8266325805
 C          6.3609011563       -0.2675919952        0.8608041018
 H          6.0777102728       -1.2875074935        0.6550592386
 H          7.7650317047       -0.7171136029        2.4079182459
 H          8.3632288026        1.6449050972        2.7907361072
 H          7.3027003854        3.4280387233        1.4571837140
 H          5.6195866638        2.8196950927       -0.2886476664
 H          3.2454158918        0.4453936699        0.7435881156
 H          2.3956461903        0.5378280155       -2.7691571113
 H          0.2999445240       -0.4504924165       -3.6449763380
 H         -1.3162335010       -1.4956657485       -2.1050297166
 C         -1.1069240940       -1.7700055939        0.6059013931
 H         -0.6383574827       -1.7601931777        1.5992705958
 C         -1.3949514978       -3.2104162983        0.2314760943
 C         -0.3472476343       -4.2475811701        0.4971014250
 C         -1.6015370966       -4.2212379309        1.3170782862
 H         -2.3359339685       -4.9976103238        1.1641624128
 H         -1.5358033477       -3.8783348985        2.3396585834
 H         -0.2168563682       -5.0429738612       -0.2204395365
 H          0.5711720424       -3.9227774845        0.9628817101
 H         -1.9927963704       -3.3149752304       -0.6634019769
 O         -3.4497141143       -1.6675679868       -1.2257379468
