  62
        -98.93714473
 C          1.8335755576        0.8843594836        0.0215124882
 C          2.3676029936       -0.4258755277        0.0173044114
 C          3.7958567909       -0.5390581986        0.3564965634
 C          4.4904420932        0.5730617060        0.6583412014
 C          5.9645186545        0.6303154673        0.9428539733
 C          6.7579509390        0.5403404315       -0.3763966873
 C          7.6086885293       -0.7222483910       -0.5155995418
 H          8.4976112793       -0.6225095323        0.1108324283
 H          7.9422479798       -0.7787963740       -1.5539647575
 C          6.9180239662       -2.0374110518       -0.1418147201
 H          6.9117146348       -2.1537156447        0.9429596125
 H          7.5373840707       -2.8452379365       -0.5374709943
 C          5.4857596557       -2.2157140235       -0.6621626348
 H          5.3628919720       -3.2565287571       -0.9688637225
 H          5.3187548469       -1.6028701728       -1.5483234958
 C          4.3853177984       -1.9221795995        0.3749303737
 H          4.7592448493       -2.1474797698        1.3775809284
 H          3.5380968878       -2.5878007162        0.1837033526
 H          7.4151283281        1.4066119050       -0.4658956496
 H          6.0499394841        0.5965657031       -1.2059465861
 H          6.2417422621       -0.1805263054        1.6126859591
 H          6.1628917330        1.5792947043        1.4413284822
 O          3.9355362348        1.8131327286        0.6648657384
 C          2.6010110051        2.0020782790        0.3467801509
 O          2.2215149169        3.1894791031        0.3950553346
 O          1.6888286922       -1.4509260368       -0.2539319667
 C          0.3751796384        1.1099821252       -0.3370512089
 C         -0.5129366451        0.3007269508        0.5759601443
 C         -0.3183522707        0.3971758919        1.9522420590
 C         -1.0895635637       -0.3389794659        2.8291649612
 C         -2.0842786483       -1.1764752032        2.3543149325
 C         -2.2953115064       -1.2718871784        0.9850907391
 C         -1.5166272766       -0.5302574828        0.1050581237
 H         -1.6940570134       -0.6397871122       -0.9511629522
 N         -3.2921758585       -2.1202395346        0.4761033271
 S         -4.3154926308       -1.5788371851       -0.7291253583
 O         -5.4391292542       -2.4885527871       -0.6856725006
 O         -3.6161437558       -1.4923078918       -1.9848830174
 C         -4.8196714254        0.0412956125       -0.1807999958
 C         -5.7458018927        0.1233800074        0.8409934903
 C         -6.1012811203        1.3713503738        1.3252524940
 C         -5.5209332400        2.5105132342        0.7877995169
 C         -4.5945941179        2.4110048442       -0.2384291361
 C         -4.2373929022        1.1650408444       -0.7295931235
 H         -3.5242081357        1.0469834898       -1.5284236168
 H         -4.1463232762        3.2981970004       -0.6567727209
 H         -5.7937127105        3.4821645693        1.1684217429
 H         -6.8253911756        1.4530811711        2.1197684665
 H         -6.1821759633       -0.7847846239        1.2241807873
 H         -3.8050390233       -2.6287952810        1.1814197153
 H         -2.6827368536       -1.7601096742        3.0371507800
 H         -0.9183322947       -0.2600895390        3.8921586007
 H          0.4599498827        1.0508120087        2.3226500849
 H          0.1798909426        2.1759887312       -0.1492973906
 C          0.1558495427        0.8270569145       -1.8084271666
 C         -0.8828620651        1.5843329333       -2.5774610462
 C          0.5717627290        1.8554560354       -2.8153994626
 H          1.0177303952        1.5210139152       -3.7400929808
 H          0.9884543224        2.7779857403       -2.4373911259
 H         -1.4433292083        1.0623149204       -3.3392852283
 H         -1.4468437348        2.3348717274       -2.0442498868
 H          0.3245996023       -0.2129346153       -2.0648057042
