  62
        -98.93690869
 C         -1.5740218753       -1.5657130501       -0.3885253548
 C         -1.5400160795       -0.2254609748       -0.8443429812
 C         -2.8243495849        0.4934740370       -0.8240712546
 C         -3.9379073909       -0.1282313957       -0.3994949101
 C         -5.3317862168        0.4405841620       -0.3621212645
 C         -5.5630463579        1.6145092222        0.6089761869
 C         -5.4128573232        3.0019038756       -0.0274347132
 H         -5.5961044146        2.9182303540       -1.0993055922
 H         -6.1886793162        3.6574319233        0.3732711658
 C         -4.0712339280        3.7033043274        0.2082929398
 H         -4.0017612342        4.5387648970       -0.4917375245
 H         -4.0575177403        4.1197733315        1.2181857233
 C         -2.8264678481        2.8282781648        0.0591777544
 H         -2.7251607968        2.1787317635        0.9325617758
 H         -1.9458715589        3.4746416457        0.0643046316
 C         -2.8105296301        1.9454484470       -1.2037071005
 H         -3.6547292156        2.1823849627       -1.8497528929
 H         -1.8884244937        2.1162407859       -1.7625030814
 H         -6.5845662734        1.5201982839        0.9808304183
 H         -4.8971085072        1.5145276507        1.4659383177
 H         -5.6128023063        0.7463122563       -1.3724357849
 H         -5.9767499760       -0.3918892385       -0.0735777504
 O         -3.9296537517       -1.4215872282        0.0246551053
 C         -2.7582914319       -2.1567102123        0.0611987193
 O         -2.9000251513       -3.3174931360        0.4965559836
 H          1.6263344571       -0.5296791174       -0.0134709598
 C          1.4172745815       -1.0518595086        0.9036852550
 C          0.4515951151       -2.0474927091        0.9275523936
 C          0.1757269584       -2.6864093095        2.1333012764
 C          0.8564200640       -2.3402412318        3.2851850949
 C          1.8179279721       -1.3456591772        3.2580005357
 C          2.0940679107       -0.6931072947        2.0619064003
 N          3.0809824697        0.3014294979        2.0048459806
 S          2.8183236891        1.7085618294        1.1255796753
 O          3.7349586084        2.6623277977        1.7195682224
 O          1.4259862997        2.0859337114        1.1332194485
 C          3.4012499961        1.3162737178       -0.5089346407
 C          4.7440552437        1.0220214809       -0.6472667654
 C          5.2365448426        0.7146662860       -1.9046093485
 C          4.3819184765        0.7093262545       -2.9972745406
 C          3.0380680535        1.0099100069       -2.8404855970
 C          2.5370736651        1.3194367304       -1.5846493956
 H          1.4910193989        1.5302956964       -1.4249687159
 H          2.3693625611        1.0003731970       -3.6867694964
 H          4.7638755414        0.4681140183       -3.9769259591
 H          6.2811493149        0.4794355355       -2.0301878722
 H          5.3732062602        1.0460788038        0.2268642651
 H          3.5194546990        0.5064573950        2.8912375690
 H          2.3500505662       -1.0722373644        4.1569037876
 H          0.6352308692       -2.8457491092        4.2132863282
 H         -0.5900349960       -3.4490775316        2.1565679829
 C         -0.3272862393       -2.4356489126       -0.3076190722
 H         -0.6944804563       -3.4598387130       -0.1551270736
 C          0.5072452900       -2.4074974223       -1.5711228907
 C          1.5624362971       -3.4537825983       -1.7626374097
 C          0.3181687744       -3.4821591740       -2.5972953402
 H          0.3889051894       -3.2146441180       -3.6408031401
 H         -0.4169998924       -4.2471673763       -2.3927335934
 H          2.4913918361       -3.1683803454       -2.2314576523
 H          1.6697951225       -4.1995397089       -0.9893201763
 H          0.7135217251       -1.4102641661       -1.9352988189
 O         -0.5099695190        0.3545461537       -1.2730893483
