  62
        -98.93004224
 C         -1.9591091250       -1.5193617396        0.2019617574
 C         -1.6630915034       -0.1545630610       -0.0068727085
 C         -2.7643969284        0.8063155582        0.2188817151
 C         -3.9761926313        0.3376546328        0.5687764464
 C         -5.2457061477        1.1138358341        0.7979542977
 C         -5.9000896410        1.5815669782       -0.5124211397
 C         -4.9347448303        2.1563309496       -1.5459910347
 H         -5.5017973058        2.3417080930       -2.4622130718
 H         -4.1752638292        1.4087453957       -1.7826497194
 C         -4.2541695112        3.4631717078       -1.1459397550
 H         -5.0179446121        4.2202907125       -0.9544926434
 H         -3.6639510033        3.7966312283       -2.0033835726
 C         -3.3275786710        3.3897897611        0.0691309764
 H         -3.8969777161        3.3679619084        0.9943905875
 H         -2.7422615354        4.3137984981        0.0862855411
 C         -2.3255932956        2.2398553849        0.0387478965
 H         -1.5750851546        2.4125878201        0.8199947435
 H         -1.7728315247        2.2694508959       -0.9071265838
 H         -6.6630970927        2.3235461749       -0.2711080932
 H         -6.3982355842        0.7213201472       -0.9663324025
 H         -5.9367295750        0.4403448423        1.3097157247
 H         -5.0546580986        1.9549141688        1.4577744107
 O         -4.2224985390       -0.9952227297        0.7275323332
 C         -3.2361855527       -1.9456582961        0.5665423610
 O         -3.6068620901       -3.1195071506        0.7744098794
 H          1.7176413726       -1.8092904618       -0.8695708022
 C          1.5684656270       -1.8272792824        0.1928615291
 C          0.3540985442       -2.1785958692        0.7590927748
 C          0.2463549804       -2.1318294804        2.1512603692
 C          1.3071223164       -1.7435990456        2.9435402707
 C          2.5164059531       -1.3928612172        2.3685789175
 C          2.6417064387       -1.4375230092        0.9869817128
 N          3.8725112496       -1.1375702853        0.3758873285
 S          4.0175441590       -0.0407003857       -0.8784606522
 O          3.1363639335       -0.4004300124       -1.9576205016
 O          5.4324569881       -0.0352417145       -1.1836415191
 C          3.5718569027        1.5407053618       -0.1824325343
 C          4.5873726160        2.4080576728        0.1733849346
 C          4.2622141366        3.6269385368        0.7450137147
 C          2.9311199145        3.9543798894        0.9554367326
 C          1.9262577086        3.0696691145        0.5971252421
 C          2.2417533381        1.8467490793        0.0234226844
 H          1.4703353826        1.1479317635       -0.2594964293
 H          0.8892264246        3.3189095232        0.7576006763
 H          2.6746454403        4.9035756921        1.3992789723
 H          5.0438673874        4.3155470491        1.0230505463
 H          5.6068842222        2.1134297403       -0.0166717042
 H          4.6261486425       -0.9882816855        1.0318902073
 H          3.3523528672       -1.0921953874        2.9819091409
 H          1.1933322558       -1.7123677294        4.0167024461
 H         -0.6982050630       -2.4015196829        2.6054976854
 C         -0.8961830732       -2.5982836415        0.0259746212
 H         -1.2929016376       -3.4721896415        0.5700691833
 C         -0.8702538782       -3.0271292987       -1.4341952353
 C         -0.1909796871       -2.3147140322       -2.5619634529
 C          0.2821677989       -3.6754410371       -2.1394991354
 H          0.0681426072       -4.5106775767       -2.7903531517
 H          1.2251772539       -3.7590704170       -1.6237987450
 H          0.4148980884       -1.4482479686       -2.3501279379
 H         -0.7306756952       -2.2322592109       -3.4954143253
 H         -1.8494221051       -3.4349683261       -1.6815247243
 O         -0.5330046473        0.2666760340       -0.3615266028
