  62
        -98.94549388
 C          1.8211531702        1.2318819396        0.3635591013
 C          1.6173469407        0.0285486800       -0.3553782294
 C          2.4219444008       -1.1215429801        0.0852266504
 C          3.2724410804       -0.9774068604        1.1178525708
 C          4.1926761604       -2.0484273205        1.6261811106
 C          5.5554964606       -1.9888178599        0.9217821411
 C          5.4614572812       -1.9128994891       -0.6022246289
 H          5.0049186011       -0.9613833291       -0.8841521686
 H          6.4824167813       -1.9063771187       -0.9899507585
 C          4.6763585517       -3.0630276990       -1.2483969798
 H          4.5947219216       -3.8951366193       -0.5480094402
 H          5.2340043621       -3.4234654084       -2.1153533997
 C          3.2812327818       -2.6789002090       -1.7443945401
 H          3.3495751518       -1.7891381387       -2.3750950596
 H          2.9060505522       -3.4952654788       -2.3671774707
 C          2.2353531913       -2.4170601998       -0.6534735204
 H          1.2583778915       -2.3449110397       -1.1402556407
 H          2.2096253112       -3.2587275701        0.0420218992
 H          6.1308928207       -2.8706008599        1.2096749509
 H          6.0896710103       -1.1042784699        1.2766475117
 H          4.3401903500       -1.8966215810        2.6969592207
 H          3.7326972406       -3.0222083605        1.4683621799
 O          3.4248962499        0.1893354993        1.7957967614
 C          2.7077895098        1.3205305193        1.4355749217
 O          2.9378524793        2.3229836790        2.1428760823
 H         -0.2984568502        0.8906220486        1.6691450204
 C         -0.9666126801        1.3683295688        0.9626354804
 C         -0.4423732599        2.2256845194        0.0046813510
 C         -1.3191763297        2.8295143196       -0.8887905090
 C         -2.6786399597        2.5770890393       -0.8213514597
 C         -3.1936059498        1.7084140988        0.1230070397
 C         -2.3241997200        1.0919327385        1.0139069997
 N         -2.8269131902        0.1730079979        1.9497786791
 S         -3.9614657498       -0.9389811221        1.4193009381
 O         -5.2801386399       -0.3656426224        1.5384427279
 O         -3.7254420498       -2.1257750224        2.2133501576
 C         -3.6089406891       -1.2536213811       -0.3026434019
 C         -2.3168416989       -1.5565769307       -0.6824867816
 C         -2.0475419783       -1.7797507499       -2.0225688016
 C         -3.0716359980       -1.7118916497       -2.9542423220
 C         -4.3672097582       -1.4214969901       -2.5557300723
 C         -4.6397890187       -1.1838026709       -1.2184028923
 H         -5.6281084989       -0.9368920412       -0.8656709025
 H         -5.1623871279       -1.3705586299       -3.2819780526
 H         -2.8549316876       -1.8836689691       -3.9967508620
 H         -1.0330367682       -1.9768500396       -2.3292874613
 H         -1.5286890491       -1.5987804109        0.0526528787
 H         -2.1148005103       -0.2749653222        2.5073381191
 H         -4.2489716198        1.4969227385        0.1866130192
 H         -3.3465037895        3.0577859895       -1.5193728797
 H         -0.9362442595        3.4988116201       -1.6414534585
 C          1.0465232401        2.4788852897       -0.0189222183
 H          1.2764061396        3.2293608293        0.7523774321
 C          1.5356438905        2.9936266405       -1.3590022079
 C          1.5785048003        4.4642080006       -1.6430104671
 C          2.8518252803        3.7070559708       -1.4185721670
 H          3.5023399407        3.5243927113       -2.2607756869
 H          3.3775053100        3.8518810804       -0.4854330268
 H          1.3570788306        4.8028553911       -2.6440103570
 H          1.2479326598        5.1359684502       -0.8651860269
 H          1.2934874909        2.3205389508       -2.1734600783
 O          0.8041420611       -0.0851299797       -1.3067806597
