  62
        -98.94172281
 C         -1.7171139883       -0.1641869481        0.4388531682
 C         -2.8346328763       -0.9017192086        0.9093791461
 C         -4.1449445512       -0.2502396999        0.7859293984
 C         -4.2108225032        1.0010699843        0.2971399408
 C         -5.4812465806        1.7650440908        0.0637019826
 C         -6.0117244146        1.5369961906       -1.3587110725
 C         -6.0793524637        0.0645897027       -1.7645436015
 H         -6.4958568257        0.0244774636       -2.7734004157
 H         -5.0645949846       -0.3362425663       -1.8212289062
 C         -6.9204180572       -0.8144539571       -0.8282710338
 H         -7.5763872660       -0.1879980220       -0.2228024811
 H         -7.5585074460       -1.4606138825       -1.4348141125
 C         -6.1042699423       -1.7278302795        0.0883518077
 H         -5.3813630567       -2.2918361881       -0.5066655425
 H         -6.7870540720       -2.4502447618        0.5433146921
 C         -5.3516212335       -1.0293718791        1.2278852823
 H         -6.0395330623       -0.3908540758        1.7857416194
 H         -4.9766314451       -1.8042039374        1.9029365839
 H         -7.0054538764        1.9825591891       -1.4322679277
 H         -5.3542582321        2.0556261440       -2.0605620207
 H         -6.2255760983        1.4546953597        0.7945342515
 H         -5.2731121578        2.8278043735        0.1985496206
 O         -3.1142420659        1.7022571416       -0.0837205257
 C         -1.8407401677        1.1436484281       -0.0333755484
 O         -0.9440649345        1.9137465922       -0.4226551025
 H          1.7874802060        0.4158300094       -0.6888537851
 C          1.7064016194        0.6299528374        0.3629213936
 C          0.6654261399        0.1037204302        1.1103485965
 C          0.5590044997        0.4605855740        2.4523356975
 C          1.4670999858        1.3282454222        3.0265780995
 C          2.5134811260        1.8424226434        2.2805643116
 C          2.6263178219        1.4951476639        0.9401134167
 N          3.6720539018        2.0015002668        0.1581503968
 S          4.3352485656        1.0894989724       -1.0680423630
 O          5.6727225302        1.6221260416       -1.2255088465
 O          3.5078963710        1.1250679715       -2.2472925222
 C          4.4194258979       -0.5768814960       -0.4325134238
 C          5.0545966595       -0.7929949103        0.7744948827
 C          5.1193871950       -2.0823554494        1.2768234982
 C          4.5543219286       -3.1303225731        0.5662566504
 C          3.9283677084       -2.8991133062       -0.6485715780
 C          3.8581280128       -1.6103898467       -1.1537678974
 H          3.3747982419       -1.3844558490       -2.0910310702
 H          3.4915310662       -3.7153266971       -1.2020143144
 H          4.6028207227       -4.1333014652        0.9599385153
 H          5.6080883169       -2.2662356777        2.2199552437
 H          5.4915933397        0.0401648685        1.3000476366
 H          4.3590575972        2.5517438335        0.6504630068
 H          3.2258264612        2.5198174633        2.7263104746
 H          1.3663790587        1.6025797687        4.0658312341
 H         -0.2571059332        0.0569851836        3.0359930621
 C         -0.3571897147       -0.8344149486        0.5241727984
 H         -0.5080229388       -1.6603062358        1.2393551174
 C          0.1074593550       -1.4698661434       -0.7775629153
 C         -0.8730426590       -2.0539789202       -1.7485189625
 C         -0.1033161249       -0.8210142128       -2.1111685931
 H          0.6818765512       -0.8955382314       -2.8500797343
 H         -0.6206993107        0.1257245042       -2.1332541577
 H         -0.6224723133       -2.9825578070       -2.2386258173
 H         -1.9240787681       -1.9493145732       -1.5215084970
 H          1.0380763558       -2.0138994475       -0.6455977401
 O         -2.7384222731       -2.0521574673        1.4133485117
