  62
        -98.93948882
 C         -1.5658627545       -1.6155328001       -0.2079897399
 C         -1.4944003351       -0.2400762653       -0.5324067366
 C         -2.7817452626        0.4689711406       -0.6403158615
 C         -3.9260047325       -0.2032846921       -0.4293788790
 C         -5.3415282256        0.3115012949       -0.5084291665
 C         -5.6263536221        1.6859176887        0.1136616668
 C         -4.7757353201        2.0314398507        1.3449994548
 H         -5.4363714247        2.3512382408        2.1531823554
 H         -4.2420025152        1.1453465874        1.6929473887
 C         -3.7750792777        3.1595221689        1.0820610215
 H         -4.2752083566        3.9408182874        0.5054471057
 H         -3.4818393261        3.5973332424        2.0392007727
 C         -2.4924415461        2.7472251702        0.3598005368
 H         -1.9359715907        3.6561928933        0.1214733677
 H         -1.8627373104        2.1518242643        1.0263733151
 C         -2.6908272069        1.9390271895       -0.9321220807
 H         -3.5528199300        2.2929274878       -1.4923832841
 H         -1.7944327778        2.0650675066       -1.5448799005
 H         -6.6829694887        1.6953937832        0.3867532288
 H         -5.4911529206        2.4611265069       -0.6391729204
 H         -5.6420897175        0.3250023540       -1.5600660141
 H         -5.9487078002       -0.4487803285       -0.0111491410
 O         -3.9456484558       -1.5322083537       -0.1206958321
 C         -2.7785537603       -2.2658618760        0.0068011099
 O         -2.9516338082       -3.4632322828        0.3144387405
 H          2.2870251999       -1.3803000204       -0.2283930422
 C          1.8410253427       -1.2728230479        0.7452194876
 C          0.5704190560       -1.7603743142        1.0012624892
 C          0.0439994851       -1.6154243558        2.2832830026
 C          0.7678910467       -0.9884400552        3.2779179697
 C          2.0281605733       -0.4805344737        3.0123556383
 C          2.5643389311       -0.6261992458        1.7391679171
 N          3.8441617839       -0.1370334152        1.4463507843
 S          4.2217524240        0.4511859542       -0.0684371633
 O          4.3885886576       -0.6384716169       -0.9981678328
 O          5.4030140922        1.2593121319        0.1589189331
 C          2.8832861995        1.5110420888       -0.5832695521
 C          2.4125542033        1.4162085327       -1.8753033940
 C          1.4274378370        2.2927970144       -2.2972526094
 C          0.9283873143        3.2415406220       -1.4210624640
 C          1.4041529846        3.3181607281       -0.1222841980
 C          2.3949300248        2.4496681585        0.3023790822
 H          2.7863595450        2.4942632396        1.3060046750
 H          1.0030938779        4.0492231329        0.5617567518
 H          0.1585212477        3.9218512728       -1.7512614524
 H          1.0461382015        2.2250938276       -3.3040151055
 H          2.8198410164        0.6552883932       -2.5224751195
 H          4.2795793961        0.4020553919        2.1797954427
 H          2.5923532769        0.0196424569        3.7846363344
 H          0.3460786009       -0.8841878533        4.2663307782
 H         -0.9476375855       -1.9992460987        2.4840768387
 C         -0.2842161516       -2.4154711266       -0.0557020921
 H         -0.5820068820       -3.4104493595        0.3050728756
 C          0.4091792526       -2.5661137139       -1.3925835177
 C          1.3652960224       -3.6974690536       -1.6167970574
 C          0.0276067474       -3.7005479005       -2.2928618555
 H         -0.0141075072       -3.5233959150       -3.3571041773
 H         -0.7260911712       -4.3871612715       -1.9350269654
 H          2.2478120235       -3.5162532672       -2.2120498418
 H          1.5223950786       -4.3867771263       -0.8007682286
 H          0.6305932306       -1.6128501213       -1.8591680373
 O         -0.4131564263        0.3689165450       -0.7291843334
