  62
        -98.94633580
 C          1.7926051484        0.7396739448        0.2228063495
 C          3.0906843761        1.0081308571        0.7186816204
 C          4.0198999238       -0.1293175366        0.7325018794
 C          3.5928481886       -1.3326562853        0.3073351781
 C          4.4494208104       -2.5614757790        0.2156887769
 C          5.1062733002       -2.6779110716       -1.1669630052
 C          5.7950074171       -1.3954621643       -1.6338720739
 H          6.2478080028       -1.6046533398       -2.6055553108
 H          5.0398308893       -0.6219843250       -1.7921529867
 C          6.8686955868       -0.8654001762       -0.6732562592
 H          7.1754596455       -1.6559708100        0.0125602992
 H          7.7485998964       -0.5810953867       -1.2542154318
 C          6.4485301001        0.3670119757        0.1298667092
 H          6.0536288293        1.1285164519       -0.5475631279
 H          7.3406504158        0.7835825709        0.6050992324
 C          5.4137179256        0.1217123559        1.2352331695
 H          5.7469546861       -0.6972568660        1.8758732435
 H          5.3542348344        1.0303332286        1.8416479992
 H          5.8323857295       -3.4922941047       -1.1368293918
 H          4.3351937677       -2.9366185398       -1.8963205075
 H          5.2131853638       -2.5246109417        0.9899699162
 H          3.8172953484       -3.4351867011        0.3821989740
 O          2.3300101619       -1.5576678596       -0.1368674783
 C          1.4017794666       -0.5289959044       -0.2029507336
 O          0.2884881458       -0.8698129348       -0.6436863135
 H         -1.8771846839        1.8993858282       -0.6318550145
 C         -1.7267418017        1.5982939910        0.3908273169
 C         -0.4533802464        1.5262850405        0.9321897292
 C         -0.3156066013        1.1317208291        2.2615964050
 C         -1.4210852237        0.8045825337        3.0213300587
 C         -2.6901223505        0.8566588274        2.4698434839
 C         -2.8400184006        1.2558745572        1.1483933511
 N         -4.1186090017        1.3477086271        0.5659748589
 S         -4.4596246492        0.4981038941       -0.8361843266
 O         -3.5809516158        0.9209889415       -1.8945628745
 O         -5.8737628409        0.7121565699       -1.0559215677
 C         -4.1810378986       -1.2114587745       -0.4094456399
 C         -2.8910937499       -1.6997124835       -0.3546905027
 C         -2.6959596849       -3.0145466269        0.0410816508
 C         -3.7799105875       -3.8118940518        0.3727534814
 C         -5.0692867696       -3.3040393679        0.3125803100
 C         -5.2731282578       -1.9907676104       -0.0768957942
 H         -6.2568644571       -1.5544542109       -0.1424078925
 H         -5.9121181684       -3.9255947073        0.5689186269
 H         -3.6179513983       -4.8337658784        0.6781581991
 H         -1.6880650169       -3.3961204985        0.0849291412
 H         -2.0524965852       -1.0736366689       -0.6159794434
 H         -4.8738679609        1.2139242422        1.2242420374
 H         -3.5560942764        0.5955423227        3.0591619049
 H         -1.2959402476        0.5004528128        4.0495488093
 H          0.6766899078        1.0844470564        2.6895707074
 C          0.7862288876        1.8731732120        0.1466700581
 H          1.2735777545        2.7298689416        0.6360377999
 C          0.5108775269        2.2342365764       -1.2978384122
 C          0.0989879795        3.6284869217       -1.6605492676
 C          1.4682678073        3.1347206329       -2.0167786845
 H          1.6911183642        2.9294667191       -3.0532270819
 H          2.3105530154        3.5116662280       -1.4548231186
 H          0.0118372768        4.3477570364       -0.8602087825
 H         -0.6239195706        3.7602706559       -2.4517499059
 H          0.0788654188        1.4146446517       -1.8625908732
 O          3.4517884286        2.1421039776        1.1340904599
