  62
        -98.94738654
 C         -2.5649223941       -0.1384802718       -0.3988439692
 C         -2.1686015559       -0.7070542165        0.8358999987
 C         -1.7227815807       -2.1065828023        0.7829281096
 C         -1.6997124246       -2.7465615216       -0.4001151565
 C         -1.2433965912       -4.1621680002       -0.6049445626
 C          0.2500272147       -4.2316667868       -0.9487209826
 C          1.1462738190       -3.4458138134        0.0087867269
 H          2.1803553512       -3.6223176007       -0.2979498678
 H          0.9620512614       -2.3754828233       -0.1162534620
 C          0.9803157184       -3.8182713851        1.4887038694
 H          1.9718225078       -3.8988112582        1.9389248829
 H          0.5021863910       -4.7953747821        1.5752049665
 C          0.2014658794       -2.7905272738        2.3124247702
 H          0.3600886281       -3.0107034704        3.3719369244
 H          0.6024753521       -1.7932670192        2.1161993697
 C         -1.3138531326       -2.7541591575        2.0757194467
 H         -1.7244056112       -3.7643777060        2.1472311302
 H         -1.7586778452       -2.1438549776        2.8673564205
 H          0.5522809545       -5.2810509871       -0.9532104918
 H          0.3943391557       -3.8294630040       -1.9543782225
 H         -1.8159083945       -4.5879633404       -1.4312267298
 H         -1.4456917309       -4.7350189609        0.2981584994
 O         -2.0770941718       -2.1631386443       -1.5678535033
 C         -2.4994130747       -0.8448504252       -1.5980895877
 O         -2.7978314703       -0.4251241659       -2.7367478925
 O         -2.2034401641       -0.0831233604        1.9292871545
 C         -3.0086724981        1.3122339842       -0.4578809496
 C         -1.8974573125        2.2058892929        0.0395056600
 C         -2.1086780732        3.3175736078        0.8452119614
 C         -1.0375701553        4.0814074659        1.2765333396
 C          0.2590619057        3.7474342320        0.9311381249
 C          0.4788948979        2.6459967918        0.1118553737
 C         -0.5973731326        1.9030248705       -0.3423409409
 H         -0.4149718340        1.0506092297       -0.9813066913
 N          1.7790444447        2.2693386861       -0.2785029990
 S          2.0888501446        0.6045095321       -0.2968576203
 O          1.6391806737        0.0582497141       -1.5538667647
 O          1.5634136326       -0.0040663663        0.9020161657
 C          3.8715517193        0.6020063854       -0.2586007445
 C          4.5539044464        0.9635504714       -1.4050848705
 C          5.9390231153        0.9915846978       -1.3789965805
 C          6.6149048957        0.6585605776       -0.2140999673
 C          5.9164975649        0.2942705071        0.9270022082
 C          4.5304871015        0.2661860362        0.9083743197
 H          3.9437565668       -0.0154989513        1.7680307010
 H          6.4441395279        0.0319342512        1.8297394792
 H          7.6930409932        0.6804702130       -0.1968396518
 H          6.4852691059        1.2714034116       -2.2652415746
 H          3.9851289871        1.2040536111       -2.2881940790
 H          2.4931293781        2.7603369343        0.2439270016
 H          1.0937551366        4.3301949966        1.2903693418
 H         -1.2147534996        4.9397451649        1.9068048188
 H         -3.1105622540        3.5792924196        1.1442120641
 H         -3.1734543854        1.5353518171       -1.5231900474
 C         -4.3135350327        1.5008476172        0.2881560788
 C         -5.2971113452        2.5399841079       -0.1572114448
 C         -5.5901490775        1.0873464614       -0.3782529398
 H         -6.3548602157        0.6154125246        0.2199986224
 H         -5.5171703060        0.6949163055       -1.3824601407
 H         -5.8667895461        3.0662025235        0.5938133202
 H         -5.0370385370        3.1386584295       -1.0171319597
 H         -4.2155463352        1.3043661791        1.3495851898
