  62
        -98.94041673
 C         -2.0556085996       -1.0289070511        0.4758605797
 C         -2.7438899497       -0.0719236615        1.2656357602
 C         -4.1676554197        0.1145212684        0.9714453904
 C         -4.7475202297       -0.6193715912        0.0045570701
 C         -6.1974588697       -0.5726662213       -0.3949955698
 C         -6.5395873000        0.5503840392       -1.3834757992
 C         -6.5375121301        1.9606223389       -0.7922022785
 H         -7.0035649603        2.6179096592       -1.5289970482
 H         -7.1620839801        1.9798994284        0.1014841215
 C         -5.1412167302        2.5047922989       -0.4589354184
 H         -4.3843456801        1.9097624993       -0.9754988487
 H         -5.0501523304        3.5279711491       -0.8305889579
 C         -4.8119156501        2.5342857183        1.0336705116
 H         -5.4779584401        3.2349204279        1.5423668120
 H         -3.7875906001        2.8976701184        1.1509532017
 C         -4.9136533298        1.1705818279        1.7292443410
 H         -4.4570411897        1.2552894275        2.7184809610
 H         -5.9590383998        0.8866636277        1.8494417809
 H         -7.5385404000        0.3455687692       -1.7754268192
 H         -5.8387090200        0.5056041796       -2.2202108593
 H         -6.8191429297       -0.4763602318        0.4957259503
 H         -6.4190590496       -1.5297592811       -0.8721584002
 O         -4.0588720096       -1.5327177108       -0.7261757104
 C         -2.6967352896       -1.7457945507       -0.5355505406
 O         -2.2120706995       -2.5855275803       -1.3146152510
 O         -2.1898334597        0.5869329381        2.1868197704
 C         -0.5813421695       -1.2191875610        0.7835846095
 C          0.2623175403       -0.2911810505       -0.0516082902
 C          0.1433649801       -0.2607346399       -1.4377032701
 C          0.9359004700        0.5856186406       -2.1917082598
 C          1.8620712799        1.4148272705       -1.5825165095
 C          1.9873745700        1.3924154798       -0.2003937495
 C          1.1907106002        0.5416502094        0.5552246301
 H          1.2830831003        0.5390187289        1.6329302201
 N          2.9500634699        2.2168598097        0.4186323808
 S          4.5425164099        1.9200152501       -0.0212373495
 O          5.3491030999        2.5096993797        1.0224414107
 O          4.7648407098        2.4113735808       -1.3565009693
 C          4.6666147602        0.1417081901        0.0146074897
 C          4.4610125302       -0.5795641194       -1.1442307107
 C          4.4534016204       -1.9637468894       -1.0777071513
 C          4.6490181606       -2.5989732000        0.1384497684
 C          4.8615002206       -1.8600816505        1.2925134387
 C          4.8639142304       -0.4759690204        1.2338758294
 H          5.0273456104        0.1346615892        2.1076592796
 H          5.0153860107       -2.3578995909        2.2364673185
 H          4.6316504808       -3.6758665900        0.1878886079
 H          4.2878749004       -2.5418635490       -1.9724065016
 H          4.3156756401       -0.0492733790       -2.0708184204
 H          2.8714188400        2.2323772492        1.4258675308
 H          2.4942268397        2.0734231708       -2.1560533192
 H          0.8324448399        0.5996750011       -3.2662579198
 H         -0.5723948198       -0.9135094097       -1.9143983904
 H         -0.4781157895       -0.9006886115        1.8331040396
 C         -0.1203284693       -2.6684270709        0.7012254887
 C          0.8846225507       -3.1646797603       -0.2910509616
 C          1.2644593908       -3.0309359109        1.1507821185
 H          1.4003264809       -3.9247408812        1.7399277080
 H          1.9267843607       -2.2198497909        1.4149732088
 H          0.7308079508       -4.1505998201       -0.7016338720
 H          1.3035269805       -2.4610909899       -0.9929227613
 H         -0.9137372692       -3.3601520811        0.9636390785
