  62
        -98.94483218
 C         -1.8346648253       -1.1090803317       -0.1540513122
 C         -2.9911541465       -1.1523332131        0.6711162182
 C         -4.2012983757       -0.5220098054        0.1356900922
 C         -4.1770198958        0.0266633946       -1.0920151884
 C         -5.3343446657        0.6817859297       -1.7951815991
 C         -5.5434394101        2.1535454027       -1.4133507483
 C         -6.1122490979        2.3871324184       -0.0132070352
 H         -6.4107583197        3.4360285716        0.0401568646
 H         -7.0125398555        1.7857742366        0.1168504624
 C         -5.1269408474        2.0963020246        1.1276616188
 H         -4.1089871312        2.0638992091        0.7317553503
 H         -5.1596168284        2.9118638898        1.8536811400
 C         -5.4030063757        0.8002448180        1.8902835457
 H         -4.6249523473        0.6778163519        2.6481474291
 H         -6.3642866947        0.8752271572        2.4033780274
 C         -5.4139498451       -0.4592361291        1.0139903394
 H         -6.3220525383       -0.4910743155        0.4122647178
 H         -5.3960551448       -1.3333370023        1.6693920757
 H         -4.5907748383        2.6794347346       -1.5118029317
 H         -6.2364019605        2.5835979564       -2.1402525377
 H         -6.2480820985        0.1204432261       -1.5981862841
 H         -5.1182261286        0.6309504257       -2.8645593877
 O         -3.0600283417        0.0284724109       -1.8629603790
 C         -1.8613779468       -0.5071215162       -1.4119402049
 O         -0.9288385757       -0.3747570545       -2.2320294677
 O         -3.0095516413       -1.7038775575        1.8031647751
 C         -0.5807706311       -1.7544764651        0.4111440110
 C          0.3666090842       -0.7381579412        1.0024009588
 C          0.7829658602       -0.8286750950        2.3251127077
 C          1.6882468134        0.0810035086        2.8447515314
 C          2.1956141785        1.0986802530        2.0571340071
 C          1.7775848047        1.2014244111        0.7368683906
 C          0.8774967645        0.2845802800        0.2160819306
 H          0.5646752359        0.3669756718       -0.8141737888
 N          2.3042207472        2.2239112080       -0.0824767047
 S          3.9689327794        2.1604279221       -0.2839349594
 O          4.6073280187        2.7224988712        0.8798253222
 O          4.2405904332        2.8253355700       -1.5385745279
 C          4.3288384469        0.4168486378       -0.3929583051
 C          4.9418564389       -0.2257160788        0.6630191733
 C          5.1376709973       -1.5953890722        0.5896038649
 C          4.7128390207       -2.2948374900       -0.5289549214
 C          4.0975474330       -1.6345533445       -1.5814299716
 C          3.8994710714       -0.2654887757       -1.5138919140
 H          3.4252089223        0.2788551815       -2.3153832097
 H          3.7647453696       -2.1791273082       -2.4507773219
 H          4.8628056119       -3.3617628341       -0.5820419135
 H          5.6149974083       -2.1129840952        1.4058040388
 H          5.2533291912        0.3569082220        1.5142877994
 H          1.8547315529        2.2621254527       -0.9869639219
 H          2.9088849662        1.8115184281        2.4384479036
 H          2.0028315964       -0.0033670230        3.8735827640
 H          0.3853601733       -1.6143756021        2.9504247825
 H         -0.9361266162       -2.3954728724        1.2289684775
 C          0.1596389725       -2.6198744750       -0.5915095395
 C          1.0734247795       -3.6950667994       -0.0889987408
 C         -0.2236479259       -4.0596179569       -0.7455185984
 H         -0.2022353787       -4.4944733480       -1.7334860821
 H         -1.0247083802       -4.4324822958       -0.1238693699
 H          1.9911673235       -3.8789295960       -0.6248366704
 H          1.1540001610       -3.8239556396        0.9793614077
 H          0.4533865174       -2.0840860586       -1.4845360597
