  62
        -98.94414062
 C         -1.7219149389       -1.4463530119        0.2068086097
 C         -2.0128094333       -0.6867611108       -0.9523375229
 C         -2.8939435062        0.4766915122       -0.7598930494
 C         -3.3229807178        0.7907130047        0.4753305730
 C         -4.1858631862        1.9706919912        0.8144249760
 C         -3.3499975693        3.2153532797        1.1441665794
 C         -2.2732300238        3.5360208415        0.1076531980
 H         -1.7770724152        4.4552082211        0.4261831748
 H         -1.5176779579        2.7486107959        0.1160823192
 C         -2.7959586423        3.7058925477       -1.3248452180
 H         -3.8716507011        3.8853013681       -1.3121506388
 H         -2.3252735732        4.5860783028       -1.7679170760
 C         -2.4895997602        2.5254289132       -2.2483460966
 H         -1.4239337053        2.2857911504       -2.1931315000
 H         -2.6973248708        2.8352274904       -3.2762735291
 C         -3.2954598924        1.2461970072       -1.9877615693
 H         -4.3600187135        1.4879443978       -1.9536523506
 H         -3.1253308991        0.5719551397       -2.8324599305
 H         -4.0271520500        4.0659167248        1.2401293757
 H         -2.8617042364        3.0620246199        2.1092147041
 H         -4.8474536127        2.1792290712       -0.0244678418
 H         -4.7907574210        1.7112318196        1.6849959648
 O         -2.9828510447        0.0705415114        1.5736703664
 C         -2.2013281597       -1.0678153350        1.4665283313
 O         -2.0030386348       -1.6510857942        2.5487812313
 H          0.4979486215       -1.2840277581       -1.6305795775
 C          1.1296201460       -1.5817913278       -0.8066138025
 C          0.5949222273       -2.3508661356        0.2164439310
 C          1.4204992505       -2.7160734667        1.2728919217
 C          2.7463750234       -2.3175698476        1.3026888956
 C          3.2665586312       -1.5224004175        0.2969361222
 C          2.4437394458       -1.1453730057       -0.7562455643
 N          2.9287153171       -0.2433642580       -1.7264655970
 S          3.4729902132        1.2123507560       -1.0869744670
 O          3.0781531981        2.2333004160       -2.0324352902
 O          4.8891496872        1.1132584071       -0.8334639272
 C          2.6145923310        1.4075307139        0.4700614633
 C          1.2337250480        1.3668872818        0.4874873688
 C          0.5785278433        1.4355743573        1.7058522495
 C          1.3064264954        1.5621242249        2.8786661959
 C          2.6902550295        1.6235166544        2.8431238893
 C          3.3523460008        1.5358845520        1.6291843602
 H          4.4275028793        1.5553894462        1.5561148536
 H          3.2532808868        1.7257878710        3.7566492817
 H          0.7853473917        1.6059115125        3.8219318211
 H         -0.4978550480        1.3697514654        1.7412673273
 H          0.6844835197        1.2700054128       -0.4368517198
 H          2.2547070837       -0.0647802036       -2.4586699549
 H          4.2855598216       -1.1701333241        0.3192186918
 H          3.3762689589       -2.6122938044        2.1276712357
 H          1.0108216319       -3.2976887654        2.0853291798
 C         -0.8710590157       -2.7104344495        0.1988028663
 H         -1.1008225083       -3.2279331349        1.1393221686
 C         -1.1938265465       -3.6432307000       -0.9519599389
 C         -0.8417665210       -5.0938625429       -0.8290007000
 C         -2.2770448607       -4.6641573130       -0.7863720258
 H         -2.9100361962       -4.8849545917       -1.6327037253
 H         -2.7917151017       -4.6978350690        0.1630580868
 H         -0.4857496238       -5.6129479487       -1.7055936465
 H         -0.3843286112       -5.4219389635        0.0920671962
 H         -1.0929763483       -3.1815843973       -1.9251343795
 O         -1.5762813561       -0.9424360308       -2.1081117896
