  62
        -98.94053223
 C         -1.6291750150       -1.0271649037        0.8690940083
 C         -2.8652358735       -1.2420075728        0.2101665956
 C         -3.8729492794       -0.1810041400        0.3834957074
 C         -3.5738023445        0.9133763255        1.1048448233
 C         -4.4849379490        2.0895794877        1.3020415414
 C         -4.2687475188        3.1527691088        0.2158222901
 C         -4.2641213607        2.5919670433       -1.2062228493
 H         -4.1325872464        3.4350502584       -1.8878097834
 H         -3.3964542128        1.9398721259       -1.3299367597
 C         -5.5351819162        1.8205178884       -1.5877100154
 H         -6.3430457155        2.0732240567       -0.8999106612
 H         -5.8496630717        2.1342130981       -2.5853690253
 C         -5.3650257850        0.3009507576       -1.6317941912
 H         -4.4992567523        0.0466354713       -2.2481914988
 H         -6.2474667082       -0.1263047041       -2.1156356068
 C         -5.2087936025       -0.3923988656       -0.2725165248
 H         -6.0173369861       -0.0837232182        0.3933278785
 H         -5.2933199571       -1.4702880199       -0.4394844816
 H         -5.0538627307        3.9052869140        0.3097070640
 H         -3.3079485865        3.6405094408        0.3946937752
 H         -5.5179534115        1.7472168253        1.2889787990
 H         -4.2710936865        2.5299966439        2.2774595306
 O         -2.3690964364        1.0941876126        1.7052072606
 C         -1.3769011631        0.1348820092        1.6028342989
 O         -0.3233306168        0.4238100264        2.2055414131
 H          2.2013445030       -1.5890653922        0.8773946298
 C          1.7937314778       -1.4816039110       -0.1163034916
 C          0.4380963140       -1.6700163183       -0.3367740876
 C         -0.0605427406       -1.5172718522       -1.6275071233
 C          0.7862116368       -1.1868598098       -2.6689908284
 C          2.1371046367       -0.9845954486       -2.4424614799
 C          2.6438977733       -1.1298149766       -1.1568679459
 N          4.0122116709       -0.9419269327       -0.8984980055
 S          4.4981698667        0.0188447448        0.3849512788
 O          5.9119538166        0.2253707460        0.1599822740
 O          4.1380042429       -0.6063211570        1.6305733590
 C          3.6246175916        1.5558087831        0.1517139573
 C          4.2291523223        2.5272505500       -0.6242442513
 C          3.5504977711        3.7076038294       -0.8759881082
 C          2.2766114907        3.8932824147       -0.3590704429
 C          1.6844021735        2.9082938331        0.4149154994
 C          2.3599672548        1.7259782867        0.6771698897
 H          1.9047566321        0.9590466022        1.2838976269
 H          0.6950725451        3.0382455126        0.8254289022
 H          1.7436227720        4.8100767446       -0.5566226374
 H          4.0125914480        4.4768450998       -1.4735487007
 H          5.2234096137        2.3441582672       -0.9987227523
 H          4.5594726432       -0.7255146568       -1.7196613689
 H          2.7957347114       -0.7187882181       -3.2552764344
 H          0.3900952717       -1.0768712697       -3.6671662232
 H         -1.1155171348       -1.6675329490       -1.8017401072
 C         -0.4715468036       -2.0112258337        0.8153201549
 H          0.0994267465       -1.8394205033        1.7426722470
 C         -0.9094073029       -3.4689745267        0.8251647318
 C         -0.7311637256       -4.3976446390       -0.3342949016
 C          0.1294561379       -4.5500743206        0.8813921085
 H         -0.0344312355       -5.3936291185        1.5348328254
 H          1.1634184474       -4.2462421297        0.8045584563
 H         -1.5100841194       -5.1223900738       -0.5153309491
 H         -0.2767043313       -4.0144086785       -1.2340388902
 H         -1.7988759012       -3.6207229066        1.4275617262
 O         -3.1350887808       -2.2521534851       -0.4871415761
