  62
        -98.93905546
 C         -2.3237105942       -0.8396473749        0.6365631551
 C         -3.4278290360       -0.9590972930       -0.2430973578
 C         -4.5745695905       -0.0819437045        0.0417007721
 C         -4.5301799106        0.7513664417        1.0958539312
 C         -5.6020188464        1.7362322140        1.4608538993
 C         -5.3523216728        3.0993745500        0.8003964351
 C         -5.0573344810        3.0156528183       -0.6973166068
 H         -4.1045880887        2.5013917365       -0.8445690915
 H         -4.9293246479        4.0376819719       -1.0605373520
 C         -6.1457548301        2.3127796407       -1.5206250935
 H         -6.3371068787        2.9003756107       -2.4209497864
 H         -7.0758387541        2.2788049911       -0.9521970373
 C         -5.7807637973        0.9000316662       -1.9801319225
 H         -4.8027803254        0.9147401369       -2.4677346617
 H         -6.5146797181        0.5855372578       -2.7268420457
 C         -5.7557312224       -0.1723114619       -0.8836787423
 H         -5.6780242504       -1.1469087068       -1.3739647768
 H         -6.6898093420       -0.1447004347       -0.3193709164
 H         -4.4974138874        3.5700931803        1.2915302149
 H         -6.2286302592        3.7286499105        0.9662969014
 H         -6.5690056662        1.3431472712        1.1532289478
 H         -5.5984352061        1.8612928029        2.5449514868
 O         -3.4642598426        0.8221857255        1.9340936867
 C         -2.3418048393        0.0422659676        1.7219543208
 O         -1.4384196628        0.2140017420        2.5665003390
 H          1.3110990375       -0.3764708862        0.7936485156
 C          1.0329821272       -0.4593540573       -0.2474610432
 C         -0.1617349142       -1.0708995188       -0.5997603947
 C         -0.5065203898       -1.1424075530       -1.9458223471
 C          0.3351827096       -0.6206043923       -2.9107547221
 C          1.5389105415       -0.0364123692       -2.5583964648
 C          1.8867181117        0.0509547563       -1.2153961847
 N          3.0883384433        0.6638316818       -0.8253978376
 S          3.9005980611        0.0564238641        0.5238811281
 O          3.8903354697       -1.3890813769        0.4971106960
 O          3.3679865712        0.6785378252        1.7099922831
 C          5.5467630693        0.6672307616        0.2122105348
 C          5.8551525895        1.9640819003        0.5774506743
 C          7.1244886939        2.4513951048        0.3093808742
 C          8.0586725776        1.6389886381       -0.3162078351
 C          7.7352310737        0.3390747544       -0.6751450594
 C          6.4671494430       -0.1543474217       -0.4109812939
 H          6.1737007452       -1.1607376869       -0.6630316708
 H          8.4647192340       -0.2909939671       -1.1579321375
 H          9.0460608974        2.0207711668       -0.5223487886
 H          7.3803321912        3.4604567638        0.5897399832
 H          5.0992446044        2.5535789443        1.0699539110
 H          3.7155118157        0.8302346942       -1.6005814695
 H          2.2009410721        0.3574504424       -3.3146784515
 H          0.0561380851       -0.6807509255       -3.9519659446
 H         -1.4449196701       -1.5961701414       -2.2236342960
 C         -1.0458845194       -1.6494034934        0.4799834520
 H         -0.5094525725       -1.5405333608        1.4330745733
 C         -1.2956735769       -3.1266204490        0.2422834025
 C         -0.1703020496       -4.0886833608        0.4705598822
 C         -1.3360246600       -4.0599984898        1.4123402724
 H         -2.0363275769       -4.8815018102        1.3920317072
 H         -1.1872813885       -3.6365813896        2.3955278000
 H          0.7717470906       -3.6830797695        0.8112339331
 H         -0.0693860777       -4.9313064067       -0.1961610098
 H         -1.9732102881       -3.3252333105       -0.5771089767
 O         -3.4806772926       -1.7505774347       -1.2209147210
