  62
        -98.94647610
 C         -1.0841446788       -1.4361426596       -0.0080550597
 C         -1.8296108787       -0.8909881201        1.0631851606
 C         -2.3634086893        0.4610390997        0.8512070911
 C         -2.1002268899        1.0988322701       -0.3040691289
 C         -2.5863687006        2.4738681999       -0.6574697484
 C         -3.9330240908        2.4189492295       -1.3923701281
 C         -4.9765257702        1.5417052190       -0.7008686880
 H         -5.8946230304        1.6014975187       -1.2891730677
 H         -4.6430122898        0.5019452991       -0.7286330883
 C         -5.2747386100        1.9368819485        0.7521381422
 H         -4.9307148603        2.9548815786        0.9381725123
 H         -6.3561635199        1.9269906081        0.9036597225
 C         -4.6711767393        1.0008045886        1.8011419618
 H         -5.1194001391        1.2400442982        2.7692361220
 H         -4.9354424989       -0.0332398615        1.5655349217
 C         -3.1485823093        1.0811808891        1.9721201114
 H         -2.8818370088        0.5173839190        2.8713385812
 H         -2.8468543696        2.1201744592        2.1236727816
 H         -4.3159816812        3.4363830494       -1.4878796577
 H         -3.7635562509        2.0223830498       -2.3956822282
 H         -1.8433039410        2.9416005804       -1.3058983386
 H         -2.6787489106        3.0631996697        0.2528211417
 O         -1.3888982500        0.5394634306       -1.3140704892
 C         -0.8585510194       -0.7354927693       -1.1920197096
 O         -0.2126673796       -1.1195473488       -2.1858174599
 O         -2.0290151282       -1.5030966705        2.1481600605
 C         -0.4115485782       -2.7864048094        0.1621770098
 C          1.0786751616       -2.6199445687       -0.0195102306
 C          1.8648105518       -3.4887606382       -0.7649448110
 C          3.2166765916       -3.2388209177       -0.9286980514
 C          3.8063855613       -2.1190288376       -0.3720353013
 C          3.0311930812       -1.2496815380        0.3898928391
 C          1.6858335614       -1.5230368886        0.5805622695
 H          1.0921434913       -0.8509634390        1.1825321198
 N          3.6123540309       -0.1128933579        0.9703544692
 S          2.8498699205        1.3114909717        1.3548292797
 O          3.8882051203        2.1065474920        1.9741319396
 O          1.6815118208        1.0601276910        2.1633877800
 C          2.3439940497        2.1275400918       -0.1543604499
 C          2.4816686691        3.5021578719       -0.2039838097
 C          2.0411206985        4.1864720319       -1.3248835294
 C          1.4671289785        3.4893457819       -2.3775091594
 C          1.3416789291        2.1109151719       -2.3170583097
 C          1.7821296597        1.4206796118       -1.1978145899
 H          1.6734582101        0.3491604318       -1.1457587701
 H          0.8888448391        1.5522905419       -3.1211394796
 H          1.1159021580        4.0205316220       -3.2481897092
 H          2.1416210481        5.2588744520       -1.3719291692
 H          2.9347102092        4.0032089619        0.6360067903
 H          4.5808563608        0.0441027025        0.7364366390
 H          4.8549461812       -1.9140930971       -0.5236999215
 H          3.8171540417       -3.9176161273       -1.5149162017
 H          1.4186761820       -4.3540132683       -1.2268981111
 H         -0.6049078578       -3.0848553897        1.2035823298
 C         -1.0229509781       -3.8156917994       -0.7649991403
 C         -1.0610903174       -5.2617923095       -0.3732227706
 C         -2.3226740077       -4.4535181800       -0.3792083600
 H         -3.0547425179       -4.6409840501       -1.1503523499
 H         -2.7521974876       -4.1649659504        0.5692832102
 H         -0.9299866873       -6.0085027793       -1.1418232908
 H         -0.6390473170       -5.5324357696        0.5829069893
 H         -0.8773970185       -3.5696592191       -1.8108467202
