  62
        -98.94336709
 C         -2.0054720488       -0.7783265624        0.5389350083
 C         -2.0517002343       -0.0780987879       -0.6908014952
 C         -2.1856955850        1.3791135652       -0.5885710175
 C         -2.2056351317        1.9662045452        0.6214522380
 C         -2.2859159810        3.4453086036        0.8872938004
 C         -3.7110959225        4.0146243120        0.8563003303
 C         -4.3405463769        4.1186390173       -0.5333854422
 H         -5.2398225113        4.7293620951       -0.4323410851
 H         -3.6589160594        4.6483655464       -1.1993710580
 C         -4.7265884005        2.7695609361       -1.1555015771
 H         -4.7547478416        2.0043269185       -0.3764619088
 H         -5.7322646335        2.8367884034       -1.5762404263
 C         -3.7972057272        2.2994489922       -2.2743797691
 H         -4.1408553107        1.3204340906       -2.6172997424
 H         -3.8568830573        2.9924360239       -3.1164090063
 C         -2.3267615741        2.1641820800       -1.8574673610
 H         -1.8718904561        3.1484260940       -1.7461318608
 H         -1.7929219416        1.6199800405       -2.6405109699
 H         -4.3452379383        3.4002006010        1.4995024734
 H         -3.6694306253        5.0166259107        1.2895236822
 H         -1.6608061275        3.9765036248        0.1687078953
 H         -1.8716457385        3.6016188011        1.8859248473
 O         -2.1316037363        1.2591806941        1.7819110795
 C         -2.0299714348       -0.1223272236        1.7676350286
 O         -1.9717519135       -0.6454561584        2.9018179055
 O         -1.9796088451       -0.6392510171       -1.8156122152
 C         -1.8189808140       -2.2832455693        0.5424939808
 C         -0.5298324120       -2.6500008337       -0.1561759863
 C         -0.3752884165       -3.8187994873       -0.8908190583
 C          0.8369084187       -4.1103510242       -1.4931313736
 C          1.9103471776       -3.2461739060       -1.3872490198
 C          1.7633833205       -2.0692089294       -0.6590135335
 C          0.5591201073       -1.7967128587       -0.0335663906
 H          0.4636203332       -0.8918376323        0.5491518103
 N          2.8153383218       -1.1409065685       -0.5899835112
 S          2.7872652746        0.1456196362        0.4883544365
 O          2.7256946653       -0.3286380746        1.8550589954
 O          1.7650817934        1.0787121097        0.0835120083
 C          4.3951125146        0.8416510284        0.1580009897
 C          4.5771205381        1.5315740222       -1.0260919220
 C          5.8258269001        2.0619937120       -1.3075732921
 C          6.8662970146        1.8957091131       -0.4051210628
 C          6.6681249742        1.2034708030        0.7797725407
 C          5.4216398211        0.6682634604        1.0662823373
 H          5.2174518239        0.1275576120        1.9764187103
 H          7.4773325128        1.0787719765        1.4810197499
 H          7.8367955990        2.3111469125       -0.6258544368
 H          5.9825262842        2.6028743359       -2.2268436981
 H          3.7359953557        1.6426385598       -1.6906954788
 H          3.7336902110       -1.5494637687       -0.6872377364
 H          2.8493679601       -3.4686378170       -1.8696343028
 H          0.9449752255       -5.0236204506       -2.0583092888
 H         -1.2043832902       -4.5000325745       -0.9924698939
 H         -1.7263556372       -2.5766887111        1.5998016075
 C         -3.0324130041       -2.9697093476       -0.0525825860
 C         -3.4826110385       -4.3032447562        0.4614190244
 C         -4.2787779086       -3.0727777913        0.7726084410
 H         -5.2327893252       -2.9348421051        0.2865163881
 H         -4.2386707027       -2.6756893425        1.7770012323
 H         -3.8952548645       -5.0131269265       -0.2395566650
 H         -2.9126847447       -4.7499109905        1.2622902810
 H         -3.1471472741       -2.7598600018       -1.1097439517
