  62
        -98.94335516
 C          2.0122886040        0.7758671995        0.5378978465
 C          2.0497095455        0.0735044771       -0.6909594176
 C          2.1681453897       -1.3849145647       -0.5870636028
 C          2.1837112817       -1.9706260546        0.6236933028
 C          2.2450344805       -3.4503283626        0.8913081434
 C          3.6620259179       -4.0394905241        0.8573942041
 C          4.2864503501       -4.1534853564       -0.5337536202
 H          5.1774947941       -4.7764375138       -0.4344605949
 H          3.5958607918       -4.6743712707       -1.1974793646
 C          4.6892805407       -2.8103089309       -1.1579735877
 H          4.7293189399       -2.0448330178       -0.3796976486
 H          5.6930522557       -2.8914166641       -1.5807943811
 C          3.7638407319       -2.3287783745       -2.2752442666
 H          3.8122868549       -3.0233102830       -3.1167252168
 H          4.1198865923       -1.3548220615       -2.6199157657
 C          2.2962805711       -2.1733637141       -1.8552334348
 H          1.7679700391       -1.6231018955       -2.6377921357
 H          1.8285172225       -3.1513011674       -1.7416430967
 H          4.3062891132       -3.4334437043        1.4984675337
 H          3.6073550205       -5.0404326864        1.2916309108
 H          1.8311476756       -3.5996811627        1.8911738280
 H          1.6107232110       -3.9737261514        0.1750402857
 O          2.1213154180       -1.2611689698        1.7833396964
 C          2.0330509553        0.1212401196        1.7674032626
 O          1.9823542741        0.6464070280        2.9010261287
 O          1.9814900733        0.6338611448       -1.8164167444
 C          1.8356641582        2.2820327841        0.5397756853
 C          0.5458824650        2.6547636245       -0.1547767129
 C          0.3947319651        3.8231735365       -0.8906918366
 C         -0.8177500251        4.1193965468       -1.4901994868
 C         -1.8946329020        3.2599488827       -1.3809141844
 C         -1.7511809455        2.0834425383       -0.6512096736
 C         -0.5469022784        1.8070023315       -0.0276173593
 H         -0.4543006009        0.9030164793        0.5568908510
 N         -2.8069466738        1.1594459137       -0.5794494373
 S         -2.7793300125       -0.1312130585        0.4938567717
 O         -2.7207801107        0.3378483076        1.8625584824
 O         -1.7558592915       -1.0621186047        0.0873005907
 C         -4.3857225849       -0.8278401610        0.1578291363
 C         -5.4119002780       -0.6684687831        1.0690229791
 C         -6.6565566021       -1.2055477257        0.7780070952
 C         -6.8532721906       -1.8856406116       -0.4141271075
 C         -5.8131558281       -2.0378591018       -1.3194787747
 C         -4.5662995432       -1.5055126987       -1.0335541804
 H         -3.7254988650       -1.6058832234       -1.7002797832
 H         -5.9686849491       -2.5693573638       -2.2444002733
 H         -7.8222996779       -2.3027019413       -0.6382485997
 H         -7.4654826016       -1.0917380177        1.4814209460
 H         -5.2089359650       -0.1366968771        1.9846788185
 H         -3.7239085354        1.5729192915       -0.6689272138
 H         -2.8336843468        3.4856899469       -1.8616909552
 H         -0.9231709867        5.0324411827       -2.0562361861
 H          1.2266632472        4.5004340307       -0.9956272984
 H          1.7489163210        2.5777890790        1.5969300517
 C          3.0503737973        2.9607658349       -0.0614386765
 C          3.5087177205        4.2935718979        0.4472941445
 C          4.3003288371        3.0602357489        0.7587280002
 H          5.2517810554        2.9166018251        0.2692892472
 H          4.2623218043        2.6661033852        1.7643552715
 H          3.9219198693        4.9997020691       -0.2571390225
 H          2.9439334521        4.7449819212        1.2491512802
 H          3.1600989477        2.7476552544       -1.1184698244
