  62
        -98.94753991
 C         -1.3397670556       -1.6259886158       -0.5042827922
 C         -1.1918151314       -0.3159086971       -1.0250431443
 C         -2.3743993725        0.5542182627       -0.9201615908
 C         -3.5056886859        0.0806144979       -0.3699789181
 C         -4.7691281299        0.8674366048       -0.1757439493
 C         -4.8074905103        1.5360561682        1.2047087944
 C         -3.5366633656        2.3121768875        1.5510407311
 H         -3.6955249544        2.7803596867        2.5252932635
 H         -2.7032764976        1.6142466480        1.6669350271
 C         -3.1485525330        3.3858171986        0.5254270571
 H         -2.8654893800        4.2937278075        1.0626101500
 H         -4.0077255430        3.6321770790       -0.1003193293
 C         -1.9603722671        3.0055887289       -0.3605200475
 H         -1.6128740797        3.9121096547       -0.8653710019
 H         -1.1459652473        2.6404734433        0.2718610806
 C         -2.2429580173        1.9564197154       -1.4441601964
 H         -3.1316034115        2.2427085113       -2.0112370094
 H         -1.3871312411        1.9412784562       -2.1254187025
 H         -4.9522059406        0.7620029113        1.9619300864
 H         -5.6661394244        2.2094518771        1.2383800485
 H         -4.8451549405        1.6204337664       -0.9576791199
 H         -5.6145733975        0.1821961514       -0.2598527275
 O         -3.6165323968       -1.1845531646        0.1092323625
 C         -2.5398365278       -2.0523740654        0.0729111950
 O         -2.7761872134       -3.1743114351        0.5671802787
 H          1.2502177663       -0.4614416676        0.0181100161
 C          1.3854675052       -1.2134564859        0.7769620882
 C          0.7018752287       -2.4160765959        0.6748002507
 C          0.8768827541       -3.3714094306        1.6690017198
 C          1.7104539316       -3.1191934643        2.7445886169
 C          2.3706262263       -1.9085264572        2.8562597736
 C          2.1997182023       -0.9469412786        1.8665860284
 N          2.8581893167        0.2889971160        1.9302352877
 S          2.1033827876        1.6636566119        1.3382450227
 O          2.8039961471        2.7578597952        1.9836252576
 O          0.6773761963        1.6277835433        1.5689488949
 C          2.4904231374        1.7099175252       -0.3989213658
 C          1.7714405661        2.5783670435       -1.1936786095
 C          2.0766225420        2.6652115156       -2.5418434783
 C          3.0945841592        1.8877062243       -3.0696865933
 C          3.8127222775        1.0258872253       -2.2561599360
 C          3.5132925164        0.9352334171       -0.9062059793
 H          4.0467672303        0.2642916033       -0.2533052282
 H          4.6016699695        0.4178966986       -2.6695728939
 H          3.3254048053        1.9503754884       -4.1216867721
 H          1.5138403271        3.3325372920       -3.1751570350
 H          0.9790035391        3.1577312762       -0.7485668552
 H          3.3617597586        0.4726469872        2.7853399945
 H          3.0080251861       -1.7050355163        3.7033801680
 H          1.8380317069       -3.8681050566        3.5116306206
 H          0.3402011793       -4.3067292345        1.6043123982
 C         -0.2221598667       -2.6597787616       -0.4939209458
 H         -0.7154665433       -3.6285490606       -0.3360295633
 C          0.5567416045       -2.7231680957       -1.7935991759
 C          1.3153292351       -3.9721251944       -2.1232865919
 C          0.0775382239       -3.6212424078       -2.8922237468
 H          0.1784435010       -3.2840704038       -3.9127411891
 H         -0.8175219234       -4.1988648692       -2.7106972689
 H          1.2599077764       -4.7917460252       -1.4228166480
 H          2.2702583137       -3.8782710671       -2.6166041800
 H          0.9926716794       -1.7754871448       -2.0798730432
 O         -0.1450029748        0.1263280805       -1.5679315516
