  62
        -98.94092233
 C         -1.4676812610       -1.1960331452        0.0445273635
 C         -2.5124678669       -0.7357819925        0.8733174054
 C         -3.1411158325        0.5468017517        0.5057589158
 C         -2.6624960778        1.2192811507       -0.5581006152
 C         -3.1652960353        2.5148264046       -1.1365706627
 C         -4.4615418813        2.3404338797       -1.9467436204
 C         -5.4976572825        1.4132704957       -1.3157957396
 H         -6.3011918650        1.2699073639       -2.0428454446
 H         -5.0431323044        0.4369550009       -1.1377055261
 C         -6.1260344949        1.9243352821       -0.0217711929
 H         -6.6341034554        2.8707229236       -0.2202555426
 H         -6.8833830520        1.1973983918        0.2823740352
 C         -5.1659732728        2.1301489223        1.1508699058
 H         -4.5766986168        3.0337601091        1.0190900143
 H         -5.7742279929        2.2845632730        2.0471693248
 C         -4.2529946382        0.9441458960        1.4475572794
 H         -4.8661530152        0.0456185569        1.5826588673
 H         -3.7709289946        1.1131832418        2.4189423787
 H         -4.9014538895        3.3255622896       -2.1099362517
 H         -4.1939743404        1.9241026697       -2.9207738134
 H         -3.2920313719        3.2478110040       -0.3450279702
 H         -2.3818815462        2.8839555335       -1.8023338488
 O         -1.6299435799        0.7510509641       -1.3127488038
 C         -0.9927405747       -0.4381771764       -1.0258450398
 O         -0.0456085755       -0.7167123770       -1.7863432227
 O         -2.9125517628       -1.3710484892        1.8895291571
 C         -0.7736796608       -2.5062219708        0.3752029735
 C          0.6978130832       -2.2434991139        0.5722714399
 C          1.7058758776       -2.9918651794       -0.0213287026
 C          3.0342323111       -2.6306626945        0.1292502303
 C          3.3830373954       -1.5054725424        0.8539235555
 C          2.3828311833       -0.7679237419        1.4719629210
 C          1.0601854707       -1.1533645637        1.3546765037
 H          0.2885019452       -0.5590204133        1.8293898412
 N          2.7354575688        0.4456304285        2.1364539133
 S          2.4375824576        1.7585231389        1.1096404602
 O          2.8862007947        2.9305507382        1.8330808818
 O          1.0529646666        1.7937858986        0.6856372764
 C          3.5242437006        1.4191379482       -0.2531160432
 C          4.8407107364        1.8266613782       -0.1529447106
 C          5.7164119624        1.5202210478       -1.1814631724
 C          5.2628029722        0.8093393931       -2.2828607110
 C          3.9384818337        0.4079858315       -2.3659854156
 C          3.0539002156        0.7122999431       -1.3421425274
 H          2.0187469446        0.4062579746       -1.3801291879
 H          3.5809182454       -0.1474184152       -3.2181255664
 H          5.9446935328        0.5656629444       -3.0823173502
 H          6.7466102340        1.8319379430       -1.1203020056
 H          5.1425855394        2.3772864744        0.7228021110
 H          2.1988081447        0.5927387970        2.9822331859
 H          4.4087766119       -1.1874835067        0.9441538664
 H          3.8041502056       -3.2180507787       -0.3462313345
 H          1.4485271772       -3.8498611781       -0.6205837767
 H         -1.2069956752       -2.8383963115        1.3304388836
 C         -1.0672450295       -3.5447073768       -0.6868465843
 C         -1.0672435161       -5.0030911169       -0.3404301988
 C         -2.3596468194       -4.3001407691       -0.6240393039
 H         -2.8759005292       -4.5160813665       -1.5473117052
 H         -3.0193414156       -4.0830198953        0.2034518588
 H         -0.6981762683       -5.7063843520       -1.0713828249
 H         -0.8529075139       -5.2739709943        0.6822091786
 H         -0.7081946956       -3.2477645248       -1.6660280495
