  62
        -98.93542031
 C         -1.7482055854       -0.8425336336       -0.2561077044
 C         -2.9760951654       -1.4276259872        0.1496894860
 C         -4.1982453446       -0.8010846021       -0.3621656934
 C         -4.1069941565        0.2654599888       -1.1764506967
 C         -5.2598898500        1.0055726969       -1.7989860702
 C         -5.8928189421        2.0614475548       -0.8822150025
 C         -6.7277406448        1.5057187807        0.2723239226
 H         -7.2866466489        2.3430869018        0.6948679900
 H         -7.4550899064        0.7928622175       -0.1173540430
 C         -5.9054450753        0.8476970340        1.3891987353
 H         -6.2637879267        1.1980655584        2.3597726345
 H         -4.8612107893        1.1573551014        1.3032613983
 C         -5.9685554864       -0.6795694060        1.4068464580
 H         -5.3205615260       -1.0399959327        2.2096538755
 H         -6.9887401583       -1.0019694305        1.6264804642
 C         -5.5167989365       -1.3441843886        0.1000867377
 H         -5.3893205397       -2.4134864824        0.2852463264
 H         -6.2742702288       -1.2103451429       -0.6718553332
 H         -5.0994726719        2.6990677085       -0.4850424128
 H         -6.5401895692        2.6851832359       -1.5030658706
 H         -6.0226251008        0.2942630609       -2.1174274455
 H         -4.8636617970        1.5100223640       -2.6829690010
 O         -2.9138404729        0.7932841917       -1.5528496959
 C         -1.7057023900        0.2674971054       -1.1012045166
 O         -0.7107952773        0.8766679978       -1.5295950733
 O         -3.0463867182       -2.4350949267        0.9038742927
 C         -0.4743467975       -1.4863662119        0.2771036992
 C          0.3202147049       -0.4980469111        1.0939375052
 C          0.0249346426       -0.4268431662        2.4563566306
 C          0.6590268836        0.4792938194        3.2833027122
 C          1.6212497868        1.3334475832        2.7755374698
 C          1.9233416804        1.2792708973        1.4202443164
 C          1.2794186322        0.3693997251        0.5897320679
 H          1.5076198402        0.4038138164       -0.4593731287
 N          2.8807864010        2.1469636456        0.8833536384
 S          3.7951101772        1.7976249313       -0.4596287210
 O          4.9187121858        2.7072561253       -0.3519444454
 O          3.0230796136        1.9048543902       -1.6709216045
 C          4.3880497620        0.1251523175       -0.2640678658
 C          4.5220262315       -0.6577020256       -1.3928930448
 C          5.0395828468       -1.9372871210       -1.2684226235
 C          5.4095629183       -2.4125530855       -0.0202776392
 C          5.2680922295       -1.6153259041        1.1051187013
 C          4.7588471907       -0.3319459872        0.9853056536
 H          4.6453165940        0.3064156025        1.8460438206
 H          5.5530598095       -1.9879688547        2.0757970096
 H          5.8083233417       -3.4098553531        0.0765878942
 H          5.1463220818       -2.5569739516       -2.1438714317
 H          4.2077077519       -0.2538878110       -2.3417926659
 H          3.3704673057        2.7304419534        1.5438742012
 H          2.1217157280        2.0451409128        3.4142970078
 H          0.4078916998        0.5179096532        4.3323375761
 H         -0.7281968790       -1.0886586695        2.8605699133
 H         -0.8543805321       -2.2335880809        0.9925462303
 C          0.2339950855       -2.3096493213       -0.7901345067
 C          1.0721636900       -1.7934836504       -1.9195314393
 C          1.7135527008       -2.5431045105       -0.7903723752
 H          2.0795429204       -3.5403761567       -0.9812963752
 H          2.3041166162       -1.9841780090       -0.0814829933
 H          0.9723423636       -2.2981241071       -2.8707494150
 H          1.2262476718       -0.7325505946       -2.0262151596
 H         -0.3831948728       -3.1682857583       -1.0452500023
