  62
        -98.94691289
 C         -0.5431843905       -1.7769679226       -0.6737975400
 C         -1.6899425952       -2.0323329247        0.1209772365
 C         -2.8434978544       -1.1487492754       -0.0830494146
 C         -2.7623091997       -0.1674973538       -0.9989259410
 C         -3.8608560514        0.8065814423       -1.3145337825
 C         -3.7501392513        2.0897300586       -0.4803826682
 C         -3.5197184992        1.8441566071        1.0109405621
 H         -2.5358242300        1.3900632821        1.1602291973
 H         -3.4875974235        2.8215604067        1.4994238608
 C         -4.5949742607        0.9772118853        1.6815101898
 H         -4.8579453195        1.4317066295        2.6391718450
 H         -5.4972651828        0.9671179412        1.0681415018
 C         -4.1667111164       -0.4615582229        1.9771693165
 H         -3.2003477971       -0.4542728106        2.4890893576
 H         -4.8983252317       -0.8992062321        2.6620737585
 C         -4.0617037961       -1.3911080310        0.7612723669
 H         -3.9713219468       -2.4166300240        1.1314214971
 H         -4.9724784259       -1.3201557180        0.1627632817
 H         -2.9168812036        2.6852788548       -0.8605281139
 H         -4.6659287595        2.6689608351       -0.6159844906
 H         -3.7941223816        1.0653057244       -2.3728619339
 H         -4.8202437803        0.3267775553       -1.1293945455
 O         -1.6485307794        0.0564207369       -1.7367513194
 C         -0.5000367474       -0.7093324970       -1.5711384770
 O          0.4494557284       -0.3294597548       -2.2829025171
 O         -1.7484658767       -2.9759449817        0.9567050340
 C          0.6581949151       -2.6714928782       -0.4242106623
 C          1.5352001416       -2.0924890769        0.6623619362
 C          2.0977321941       -2.9021987125        1.6425119341
 C          2.8680298730       -2.3523964678        2.6516047111
 C          3.0623721780       -0.9842653388        2.7238969236
 C          2.5037520217       -0.1679012689        1.7481145130
 C          1.7784170805       -0.7288116869        0.7085307038
 H          1.3691771939       -0.0844668376       -0.0527017221
 N          2.6453041352        1.2273730684        1.7851814165
 S          1.3262571834        2.1682182597        1.3482516560
 O          1.5408821753        3.4267428281        2.0359986370
 O          0.0762191525        1.5043013968        1.6393756192
 C          1.5048600139        2.4491578721       -0.3979828081
 C          0.3633496306        2.6522232752       -1.1448798325
 C          0.4831326859        2.9186646334       -2.4982944324
 C          1.7400657854        2.9805764085       -3.0770956685
 C          2.8782895423        2.7790558577       -2.3121321103
 C          2.7647375028        2.5135853550       -0.9573262073
 H          3.6276612798        2.3415886677       -0.3355211734
 H          3.8540607982        2.8208369385       -2.7692043444
 H          1.8311503408        3.1786979006       -4.1335129454
 H         -0.4035968374        3.0607523655       -3.0951989516
 H         -0.5951046694        2.5730723421       -0.6556066268
 H          3.1102989312        1.5915140786        2.6043788199
 H          3.6315956127       -0.5495601698        3.5314102304
 H          3.3001471255       -2.9918066409        3.4062633881
 H          1.9119716599       -3.9655595872        1.6226574010
 H          0.2455795101       -3.6167662910       -0.0437663844
 C          1.4830156218       -2.9711511216       -1.6603986328
 C          2.2675612492       -4.2455460156       -1.7307276461
 C          1.0501031235       -4.0665797923       -2.5861718254
 H          1.1760171854       -3.9202094373       -3.6480710614
 H          0.1577600092       -4.6168225245       -2.3248457916
 H          3.2366050687       -4.2252062353       -2.2047241661
 H          2.2007565473       -4.9259650839       -0.8956911543
 H          1.9160502279       -2.0859283282       -2.1071532165
