  62
        -98.93680639
 C         -2.2209065503       -1.1205013094       -0.0493711007
 C         -3.3007900603       -0.8813417796        0.8337875694
 C         -4.2553198200        0.1748802508        0.4512362499
 C         -4.0521442398        0.8517234614       -0.6933007297
 C         -4.8670166395        1.9744557319       -1.2842327391
 C         -6.3942749096        1.8064788422       -1.2588198693
 C         -7.0936874594        2.7475159519       -0.2763459988
 H         -8.1263271393        2.8885270023       -0.6032235188
 H         -6.6026157092        3.7219177318       -0.3196647983
 C         -7.1299801396        2.2641898911        1.1724131409
 H         -7.8278750698        1.4283990512        1.2568911204
 H         -7.5246078994        3.0798915209        1.7827309113
 C         -5.7824734897        1.8272438705        1.7505556307
 H         -5.8468544797        1.9001801999        2.8382760208
 H         -4.9917020795        2.5062691905        1.4333420411
 C         -5.4036788500        0.3801321706        1.4014416600
 H         -6.2784499901       -0.1511743990        1.0156708097
 H         -5.1063143402       -0.1509159000        2.3108967197
 H         -6.6496923198        0.7709660822       -1.0396381499
 H         -6.7689430595        2.0265315629       -2.2598178592
 H         -4.5200249294        2.0625598524       -2.3163584391
 H         -4.5872917793        2.9046288916       -0.7831252086
 O         -2.9868573098        0.5991960616       -1.5065609398
 C         -2.0502178500       -0.3783539888       -1.2167894703
 O         -1.1476746500       -0.4837837785       -2.0702345403
 O         -3.4630099704       -1.5260133001        1.9044509790
 C         -1.2111999405       -2.1932446198        0.3253039588
 C          0.0957434896       -1.5142827403        0.6510239292
 C          0.2682347597       -0.9403642110        1.9079076595
 C          1.4264174298       -0.2526486614        2.2162893700
 C          2.4332914099       -0.1132327411        1.2762083001
 C          2.2622977898       -0.6650811004        0.0144986398
 C          1.1074714097       -1.3763620200       -0.2856417307
 H          0.9838181196       -1.7892731494       -1.2741201909
 N          3.2716915599       -0.5217395201       -0.9525500001
 S          3.9710869303        0.9889771098       -1.1639295993
 O          3.0672509305        2.0592236599       -0.8103210387
 O          4.4700288203        0.9884025005       -2.5220814792
 C          5.3576139202        0.9630267789       -0.0445659192
 C          6.2508639800       -0.0862834312       -0.1394151897
 C          7.3385771099       -0.1192111819        0.7183125003
 C          7.5163673801        0.8936181775        1.6490824608
 C          6.6134799303        1.9425878277        1.7289942714
 C          5.5224507504        1.9806710084        0.8744146513
 H          4.7916697106        2.7734469886        0.9040517117
 H          6.7532802805        2.7297671173        2.4524213118
 H          8.3635875101        0.8655513270        2.3159536009
 H          8.0429500497       -0.9331983021        0.6586979999
 H          6.0783810198       -0.8510395108       -0.8780140202
 H          3.0290116499       -0.9280336096       -1.8449613403
 H          3.3337512200        0.4326114686        1.5054651304
 H          1.5477937199        0.1832096781        3.1963268002
 H         -0.5268716904       -1.0300445812        2.6349092295
 H         -1.5996204007       -2.6473539102        1.2466199885
 C         -1.0994611207       -3.2660975892       -0.7371663318
 C         -0.4235583410       -4.5609895496       -0.4016051024
 C         -1.9081918510       -4.5196861591       -0.5995887225
 H         -2.3233687011       -4.9636671486       -1.4919848427
 H         -2.5435406111       -4.6111175795        0.2690064174
 H          0.1830259789       -5.0376544293       -1.1563225727
 H         -0.0492803611       -4.6786482602        0.6039272775
 H         -0.9723415306       -2.8697335687       -1.7373900816
