  62
        -98.93712899
 C          2.0292178094        1.1162399514       -0.1084849904
 C          2.7788788197        0.5364189517        0.9488537795
 C          3.5013274001       -0.7035631381        0.6425415494
 C          3.4029039101       -1.2392164881       -0.5869311006
 C          4.0138234904       -2.5308168779       -1.0628128106
 C          5.5532006804       -2.5875914674       -1.0992306809
 C          6.1940522308       -3.1750428572        0.1642785390
 H          5.4649962411       -3.8164829174        0.6609302291
 H          7.0266799410       -3.8167884369       -0.1306848411
 C          6.7469006807       -2.1572679670        1.1664559489
 H          6.9369306110       -2.6821609369        2.1050690589
 H          7.7046068005       -1.7804832367        0.8004379287
 C          5.8561973103       -0.9471524373        1.4479258190
 H          5.9008327099       -0.2536234873        0.6049627490
 H          6.2667347603       -0.4146780672        2.3079998890
 C          4.3766468405       -1.2858734978        1.7140389693
 H          4.0545648305       -0.8372506579        2.6557953493
 H          4.2332163608       -2.3634297278        1.7801797593
 H          5.9485126101       -1.5925458973       -1.3014363710
 H          5.8245009705       -3.2212414074       -1.9450929509
 H          3.6346025608       -3.3449160081       -0.4404501606
 H          3.6265898803       -2.6788654981       -2.0732081506
 O          2.6656973197       -0.6598712384       -1.5717411704
 C          1.9639341094        0.5181910514       -1.3665630003
 O          1.3456973891        0.9033735012       -2.3810733702
 O          2.8372035398        1.0365397817        2.1034449995
 C          1.2591375290        2.3857252312        0.2228395597
 C         -0.1772623908        2.0284857607        0.5208538500
 C         -0.6800575206        2.1059409705        1.8143785301
 C         -1.9775502505        1.7121684701        2.0918512603
 C         -2.7940731505        1.2202724798        1.0889426304
 C         -2.2962797107        1.1304592700       -0.2039469096
 C         -1.0061748308        1.5500414104       -0.4844914199
 H         -0.6230215210        1.4575992505       -1.4901232299
 N         -3.1083018106        0.5750787497       -1.2221981795
 S         -3.3436499001       -1.0873060104       -1.0546153794
 O         -2.2158966197       -1.7174940200       -0.4034579596
 O         -3.6767715601       -1.5707967405       -2.3770374794
 C         -4.7846390899       -1.1946487708       -0.0142496092
 C         -4.6821222495       -1.7432803708        1.2489554108
 C         -5.8157828393       -1.8086493511        2.0442724810
 C         -7.0242486695       -1.3267760715        1.5646119012
 C         -7.1106597399       -0.7808162516        0.2923467712
 C         -5.9814638101       -0.7127898312       -0.5079578590
 H         -6.0028205604       -0.3022694213       -1.5035675790
 H         -8.0523253301       -0.4081348219       -0.0770914487
 H         -7.9040818694       -1.3778780718        2.1863131213
 H         -5.7502434290       -2.2327922011        3.0333357110
 H         -3.7194922793       -2.0995253605        1.5795622806
 H         -2.7302483308        0.7487606098       -2.1445755296
 H         -3.8022029203        0.9016088195        1.2984148206
 H         -2.3540749603        1.7802547700        3.1009586904
 H         -0.0360136906        2.4562978108        2.6077608500
 H          1.7106174990        2.7607446513        1.1510305497
 C          1.3687183485        3.4647488112       -0.8347318903
 C          1.0693952981        4.8829359211       -0.4543713203
 C          2.4791507582        4.4664708115       -0.7454293105
 H          2.9412351279        4.8039547517       -1.6609803406
 H          3.1667354983        4.3774930018        0.0829772694
 H          0.5603316877        5.5105269109       -1.1694635602
 H          0.8010803382        5.0776862610        0.5728245598
 H          1.0792996584        3.1351364111       -1.8238486102
