  62
        -98.93268567
 C         -2.1446677890       -0.9981818706       -0.4545059781
 C         -3.3710662000       -0.9705660138        0.2554244497
 C         -4.2962145292        0.1444623413       -0.0193728188
 C         -3.9309051977        1.0740328496       -0.9212062950
 C         -4.6748300882        2.3137269998       -1.3434881199
 C         -4.6116067524        3.4332576254       -0.2931684867
 C         -4.8659911575        2.9809739917        1.1420723385
 H         -4.7048747299        3.8433205411        1.7943658031
 H         -4.1262660114        2.2262289850        1.4152184789
 C         -6.2685043153        2.4428333321        1.4157310430
 H         -7.0033555821        3.2064773424        1.1518823247
 H         -6.3427670543        2.2682471387        2.4920344747
 C         -6.6376001978        1.1412118364        0.6999074634
 H         -6.9087209109        1.3229466875       -0.3366358223
 H         -7.5313552049        0.7431772653        1.1890075445
 C         -5.5744399621        0.0505136623        0.7789661971
 H         -6.0296167429       -0.9035811240        0.4875040850
 H         -5.2721387433       -0.0840706720        1.8236794078
 H         -5.3336874756        4.2039172959       -0.5686253632
 H         -3.6132135530        3.8762074832       -0.3316296512
 H         -5.7050306053        2.0677675579       -1.5835370052
 H         -4.1950107693        2.6679267962       -2.2586664836
 O         -2.7403429304        1.0097065473       -1.5826382880
 C         -1.8234321651       -0.0087855823       -1.3829826783
 O         -0.8041807689        0.0946291289       -2.0941199345
 O         -3.6936395601       -1.8557502773        1.0937765139
 C         -1.2141418913       -2.1607656075       -0.1560834009
 C         -0.1530918361       -1.7743493867        0.8473222599
 C         -0.1505114381       -2.3489747574        2.1137846242
 C          0.8300828850       -2.0254080575        3.0340109993
 C          1.8361524943       -1.1384670215        2.7000691957
 C          1.8347394687       -0.5458377353        1.4409723947
 C          0.8376491364       -0.8557004469        0.5267198215
 H          0.8424124690       -0.3737596989       -0.4396269082
 N          2.8268736388        0.3818879744        1.0964553347
 S          3.3980384786        0.4482148541       -0.4912643557
 O          2.6873338024        1.4821772367       -1.1997774972
 O          3.3928279008       -0.8722025753       -1.0756636434
 C          5.0799955615        0.9728213491       -0.2008854930
 C          5.3612222411        2.3229193879       -0.1117091574
 C          6.6637346727        2.7205987774        0.1463434632
 C          7.6575840822        1.7674377026        0.3117923531
 C          7.3608363664        0.4159069891        0.2180305274
 C          6.0604434523        0.0117317602       -0.0397560450
 H          5.7842662785       -1.0263780870       -0.1317830482
 H          8.1359109047       -0.3228711333        0.3433119024
 H          8.6702353797        2.0799112431        0.5120072503
 H          6.8983686900        3.7704798283        0.2161811755
 H          4.5571466655        3.0258362693       -0.2564059790
 H          3.5744906964        0.4387983426        1.7739735462
 H          2.6122227486       -0.8946167695        3.4096468149
 H          0.8183181646       -2.4776914074        4.0139966735
 H         -0.9346244869       -3.0445687635        2.3749817871
 H         -1.8545274184       -2.9194501411        0.3157270879
 C         -0.5811551971       -2.7736648230       -1.3890589131
 C         -0.1381401732       -4.2041061055       -1.3394351410
 C         -1.3317872739       -3.8164606211       -2.1587839769
 H         -1.2473246554       -3.8204518373       -3.2350809645
 H         -2.3106865480       -4.0948196557       -1.7959629165
 H          0.7731358615       -4.4745547247       -1.8504148500
 H         -0.3092897655       -4.7493481380       -0.4234877758
 H          0.0282288762       -2.0800473989       -1.9545145506
