  62
        -98.93906521
 C         -2.6759002511       -1.0861686868       -0.3835528325
 C         -2.4151973103        0.1388796617       -1.0440115248
 C         -3.4129267729        1.2016884100       -0.8453667591
 C         -4.4953919217        0.9656538366       -0.0833001416
 C         -5.5560912048        1.9756790980        0.2430562522
 C         -5.2267758006        2.7290115199        1.5394839307
 C         -3.7991684145        3.2732844492        1.5926416862
 H         -3.0985566118        2.4352111260        1.6194203668
 H         -3.6916141923        3.8104240504        2.5375352390
 C         -3.4309405769        4.2053061004        0.4297288576
 H         -2.9064953826        5.0747871859        0.8314945552
 H         -4.3379217250        4.5693912857       -0.0542527074
 C         -2.5128671055        3.5775193772       -0.6206876897
 H         -1.6475782755        3.1269097337       -0.1276883945
 H         -2.1422800088        4.3764460842       -1.2684001727
 C         -3.1592895022        2.5190636961       -1.5233828917
 H         -2.4626207935        2.3073058871       -2.3395681669
 H         -4.0814115059        2.9147928455       -1.9533336215
 H         -5.3637522364        2.0461071516        2.3811708665
 H         -5.9361460691        3.5511507906        1.6504286824
 H         -6.5036407515        1.4493946837        0.3699994779
 H         -5.6495824295        2.6772181951       -0.5836191015
 O         -4.7226810122       -0.2273453048        0.5221297098
 C         -3.8224087197       -1.2693036609        0.3976601539
 O         -4.1521876889       -2.3025518244        1.0137966363
 O         -1.4101044029        0.3609022500       -1.7717097297
 C         -1.7490590475       -2.2900645183       -0.4673887189
 C         -0.5459012512       -2.1085587970        0.4284048485
 C         -0.4015249183       -2.8758765745        1.5785016881
 C          0.7016030201       -2.7150856087        2.3985576289
 C          1.6788062445       -1.7850411431        2.0929328759
 C          1.5410695705       -1.0092168777        0.9489623271
 C          0.4392388956       -1.1806201203        0.1218598164
 H          0.3268978029       -0.5656060211       -0.7587529944
 N          2.5094120368       -0.0324211001        0.6396077454
 S          4.1266917631       -0.5180056065        0.6809996844
 O          4.3090165649       -1.7226990252       -0.0989429476
 O          4.5437428952       -0.5949162350        2.0589134358
 C          4.9225635388        0.8649739556       -0.1105564570
 C          5.1125826367        2.0225356321        0.6201009235
 C          5.7173623675        3.1084823498        0.0078452318
 C          6.1197488946        3.0192990577       -1.3166868760
 C          5.9224769136        1.8507073241       -2.0365510314
 C          5.3161944005        0.7612289552       -1.4307759219
 H          5.1492226036       -0.1692421281       -1.9495160044
 H          6.2383462315        1.7837034392       -3.0651964358
 H          6.5923706675        3.8651962443       -1.7904463785
 H          5.8740723467        4.0185937215        0.5640615894
 H          4.7932028615        2.0426864898        1.6488969937
 H          2.3026786583        0.4189409731       -0.2421352878
 H          2.5458436211       -1.6553530455        2.7201250480
 H          0.8026007301       -3.3203194321        3.2870893932
 H         -1.1673098907       -3.5953140004        1.8316087342
 H         -2.3298354975       -3.1347087762       -0.0735760166
 C         -1.3371890855       -2.6180257191       -1.8898612252
 C         -0.8115353172       -3.9871298037       -2.1943404056
 C         -2.1649297513       -3.5758475156       -2.6900453214
 H         -2.2943706293       -3.3878165054       -3.7453057302
 H         -3.0346923710       -4.0044489411       -2.2133738216
 H         -0.0078479896       -4.0835745490       -2.9082005599
 H         -0.7624006773       -4.6955282201       -1.3809908117
 H         -0.8998612404       -1.7818232789       -2.4185090205
