  62
        -98.94540708
 C         -2.5393722582       -0.3769343908        0.0956653936
 C         -2.4542342527        0.5720559557        1.1491673355
 C         -2.3324903101        1.9774008722        0.7565626033
 C         -2.3338537311        2.3034921143       -0.5480605142
 C         -2.1864504502        3.6884678901       -1.1156246330
 C         -0.7233246097        4.1378590156       -1.2378828088
 C         -0.0452450123        4.5053175022        0.0829391585
 H          0.8792487499        5.0288031545       -0.1689336394
 H         -0.6769886838        5.2027322446        0.6348071700
 C          0.3000121419        3.3007181196        0.9699745503
 H          0.2883521019        2.3916686707        0.3623551830
 H          1.3184482598        3.4137916811        1.3504914899
 C         -0.6174820765        3.1184595466        2.1801263962
 H         -0.4899832821        3.9605999041        2.8643912739
 H         -0.3164177497        2.2075582944        2.7038109333
 C         -2.1071183340        2.9924281271        1.8361871546
 H         -2.5089438481        3.9602163453        1.5376108518
 H         -2.6369521529        2.6511348056        2.7290164754
 H         -0.7023977623        5.0131058557       -1.8919501459
 H         -0.1536072003        3.3413706302       -1.7248782569
 H         -2.6263060529        3.6664225454       -2.1150986540
 H         -2.7412865645        4.4018398510       -0.5053602535
 O         -2.4836951744        1.3761766617       -1.5268984867
 C         -2.5215987536        0.0194744878       -1.2414302367
 O         -2.5588259048       -0.6954286853       -2.2663437173
 O         -2.4714122324        0.2499348686        2.3672200512
 C         -2.4872282569       -1.8384186170        0.5187564663
 C         -1.0265637676       -2.2189720291        0.5824957755
 C         -0.4194849796       -2.6089312804        1.7699717836
 C          0.9489278945       -2.8130780497        1.8303774733
 C          1.7427174860       -2.5954433389        0.7174456830
 C          1.1405799271       -2.2132515862       -0.4732819719
 C         -0.2327197907       -2.0626309844       -0.5453147542
 H         -0.6827593114       -1.7529776408       -1.4774784885
 N          1.9600052276       -1.8609828604       -1.5848953461
 S          2.2811646371       -0.1989608745       -1.5335615110
 O          1.1036393512        0.5658056587       -1.1847827084
 O          2.8953325304        0.1256114953       -2.8031706704
 C          3.4830939727       -0.0996085017       -0.2276767272
 C          4.7837263050       -0.4782026266       -0.4977714106
 C          5.7148610827       -0.4485648935        0.5279834246
 C          5.3296258884       -0.0473185256        1.7987222088
 C          4.0195211095        0.3294186103        2.0529273182
 C          3.0832030256        0.3024860130        1.0311636280
 H          2.0530371256        0.5840580803        1.1844785948
 H          3.7197466034        0.6399268390        3.0409198936
 H          6.0546302968       -0.0270968090        2.5970199112
 H          6.7346905350       -0.7396894517        0.3346960442
 H          5.0352153571       -0.7783275611       -1.5014418605
 H          1.5039477632       -2.0522008653       -2.4683042140
 H          2.8135324485       -2.7099745527        0.7614881417
 H          1.4051775024       -3.1145723896        2.7604970879
 H         -1.0244798363       -2.7194719776        2.6577284354
 H         -2.8878454338       -1.8657192070        1.5411212093
 C         -3.2880022235       -2.7934718041       -0.3388121225
 C         -3.6774196013       -4.1229382374        0.2334344278
 C         -4.7188465858       -3.0691002608        0.0094983805
 H         -5.4259580816       -3.1998317373       -0.7955906561
 H         -5.1289843562       -2.5652235035        0.8724551804
 H         -3.6689255479       -4.9840771137       -0.4167273612
 H         -3.3835980991       -4.3353048052        1.2500654670
 H         -3.0342110283       -2.7507563676       -1.3896622479
