  62
        -98.94826045
 C          1.1466266231        1.1955558728       -0.0070481909
 C          1.9428892598        0.7021102304        1.0528555183
 C          2.6018761033       -0.5889519616        0.8146893923
 C          2.4050917784       -1.2211825730       -0.3566502195
 C          3.0563232987       -2.5146542667       -0.7514635712
 C          4.3783261666       -2.2669232486       -1.4914005242
 C          5.3101309672       -1.2878874696       -0.7773636473
 H          6.2229084325       -1.2141845327       -1.3723350057
 H          4.8496845582       -0.2973258570       -0.7701183459
 C          5.6690469109       -1.6879438186        0.6605590729
 H          5.4576558922       -2.7466382030        0.8153784923
 H          6.7420459007       -1.5470147184        0.8065955869
 C          4.9624736073       -0.8685656364        1.7423256773
 H          5.4440376991       -1.0818377598        2.7004562981
 H          5.0948055186        0.1974545519        1.5403383279
 C          3.4626850047       -1.1420045725        1.9149508388
 H          3.1350379827       -0.6419739820        2.8316255501
 H          3.2933404122       -2.2144764332        2.0356150459
 H          4.8851477231       -3.2246569602       -1.6222545966
 H          4.1513319705       -1.8632317421       -2.4806090598
 H          2.3771567135       -3.0591910639       -1.4096817176
 H          3.2325937128       -3.1124734968        0.1408011088
 O          1.6173206073       -0.7249987594       -1.3439360244
 C          0.9586451779        0.4886462836       -1.1938221054
 O          0.2552894882        0.8152501201       -2.1667711868
 O          2.0961859163        1.3132287556        2.1458767075
 C          0.4420600341        2.5284639038        0.1580172941
 C         -1.0525186138        2.3560370074        0.0422451588
 C         -1.8569320398        3.1865071230       -0.7274200242
 C         -3.2259149432        2.9889540008       -0.7741654194
 C         -3.8188705077        1.9668381022       -0.0572630978
 C         -3.0245847298        1.1361713855        0.7258750299
 C         -1.6542164111        1.3358531764        0.7701809444
 H         -1.0475071530        0.6875362489        1.3861031205
 N         -3.6057334682        0.1113280518        1.4934497078
 S         -2.9240257066       -1.4120626475        1.5225246299
 O         -3.9635747312       -2.2532492054        2.0767383304
 O         -1.6749605011       -1.3938943066        2.2406216810
 C         -2.6582225560       -1.8372643919       -0.1867095499
 C         -3.7622600511       -2.0532146585       -0.9887074308
 C         -3.5686044014       -2.3475762276       -2.3277958097
 C         -2.2815231537       -2.4162583734       -2.8400266126
 C         -1.1844754738       -2.2039087218       -2.0208311255
 C         -1.3734931888       -1.9095504493       -0.6801677281
 H         -0.5468555015       -1.7322917292       -0.0091598681
 H         -0.1831688781       -2.2412750597       -2.4188639758
 H         -2.1292307848       -2.6373806763       -3.8846316867
 H         -4.4182306771       -2.5184908255       -2.9690829528
 H         -4.7462311595       -2.0043534463       -0.5512447845
 H         -4.6100635545        0.0488834816        1.4063659656
 H         -4.8866619272        1.8142236061       -0.0933496596
 H         -3.8385766884        3.6385315002       -1.3803568910
 H         -1.4122985034        3.9885843181       -1.2927541660
 H          0.6645652234        2.8501456309        1.1870186180
 C          1.0157940090        3.5476815088       -0.8047266045
 C          1.0278758082        5.0033568765       -0.4485206514
 C          2.3068270284        4.2227946764       -0.4544751984
 H          3.0230759882        4.4075389093       -1.2410398817
 H          2.7572671647        3.9679302444        0.4940555893
 H          0.8690521562        5.7281651692       -1.2326406686
 H          0.6136059506        5.2876338370        0.5069621055
 H          0.8616212680        3.2727324674       -1.8420771695
