  62
        -98.93913427
 C          0.9106048515        1.5722291060        0.0152683687
 C          1.5281529513        0.7460914591        0.9885896019
 C          2.4804856499       -0.2609179636        0.4983038409
 C          2.6951676985       -0.3616093371       -0.8257538795
 C          3.6670110038       -1.2991062267       -1.4844619983
 C          5.1052925095       -0.7623306737       -1.3391940888
 C          6.0189525878       -1.6341353276       -0.4771834934
 H          6.9213395200       -1.0554349582       -0.2688668614
 H          6.3165543843       -2.5128479418       -1.0532084471
 C          5.4210618973       -2.1212491145        0.8460220919
 H          6.2503221779       -2.4942300386        1.4507974451
 H          4.7640488349       -2.9721454777        0.6599485711
 C          4.6501493310       -1.0728191303        1.6582219680
 H          4.9805612247       -0.0669271823        1.3985685581
 H          4.8846742751       -1.2222516465        2.7140415091
 C          3.1182722843       -1.1563249744        1.5249059173
 H          2.6724846979       -0.8493713250        2.4758678243
 H          2.8227479079       -2.1930313924        1.3391185015
 H          5.0535577679        0.2436203520       -0.9172924571
 H          5.5576863391       -0.6644354344       -2.3272155005
 H          3.3876053421       -1.3652820486       -2.5365783879
 H          3.5787228011       -2.2886497578       -1.0408095894
 O          2.0910418649        0.4484865754       -1.7308045100
 C          1.1774752547        1.4235171350       -1.3472614059
 O          0.7071762602        2.0652681013       -2.3060660217
 O          1.2868393046        0.8450706383        2.2221196249
 C         -0.0999101891        2.5779997212        0.5326918603
 C         -1.5046434682        2.0158014938        0.5357833733
 C         -2.4114775608        2.3951591893        1.5203287433
 C         -3.6969544985        1.8864090219        1.5296876310
 C         -4.0955602737        0.9644223304        0.5777646394
 C         -3.1965987744        0.5744349550       -0.4066719231
 C         -1.9196964605        1.1174708517       -0.4347094861
 H         -1.2493839966        0.8190202155       -1.2252634958
 N         -3.5474265493       -0.3874402059       -1.3731119204
 S         -2.5179930440       -1.6965795116       -1.5661556452
 O         -1.3209481154       -1.3060852036       -2.2648922294
 O         -3.3334249856       -2.7032485841       -2.2119984375
 C         -2.1381023000       -2.1944646799        0.1027807920
 C         -0.9869314843       -1.7280814638        0.7030400094
 C         -0.7523078104       -2.0322833492        2.0345034395
 C         -1.6655635249       -2.8038523521        2.7358965812
 C         -2.8114615956       -3.2787689286        2.1148884519
 C         -3.0578880506       -2.9643988665        0.7885724625
 H         -3.9349677542       -3.3128119903        0.2675414294
 H         -3.5152185163       -3.8843569445        2.6627678701
 H         -1.4794219971       -3.0358708396        3.7725493780
 H          0.1330742643       -1.6427659980        2.5118203157
 H         -0.2916468251       -1.1340716570        0.1302578278
 H         -4.5032740794       -0.7082976678       -1.3028943622
 H         -5.0911777290        0.5483416304        0.5951102944
 H         -4.3908039974        2.1939724190        2.2966236280
 H         -2.0995514563        3.0876870165        2.2868805422
 H          0.1808055385        2.7596016149        1.5800158448
 C         -0.0802880936        3.9042657886       -0.2033270322
 C         -0.4213774541        5.1677436068        0.5257738675
 C          0.9930138619        4.9024885878        0.1074914014
 H          1.4140978366        5.4726233151       -0.7066637538
 H          1.7100443629        4.6402813215        0.8719654095
 H         -0.9792765520        5.9272347875        0.0001869727
 H         -0.6535164167        5.0991534876        1.5773127153
 H         -0.3907082417        3.8191023091       -1.2370438967
