  62
        -98.94593917
 C          2.1117817036        1.4923781304        0.0046869981
 C          1.8316107860        0.3734485973       -0.8163778675
 C          2.8940122929       -0.6403883697       -0.8936395935
 C          4.0479883355       -0.4409847231       -0.2313089384
 C          5.1903931828       -1.4132911314       -0.1865145117
 C          5.0636788872       -2.3645312728        1.0117908727
 C          3.6834586605       -3.0078896203        1.1469912458
 H          3.7226335649       -3.6815432479        2.0057327658
 H          2.9497121427       -2.2328010836        1.3803074169
 C          3.2212158811       -3.7856325738       -0.0929910661
 H          2.7964629880       -4.7379002489        0.2310704975
 H          4.0783403574       -4.0136193914       -0.7277106523
 C          2.1481290733       -3.0766238646       -0.9214403408
 H          1.3346225363       -2.7548739637       -0.2666078093
 H          1.7382467258       -3.7990840455       -1.6322676493
 C          2.6238493768       -1.8611789192       -1.7272282631
 H          3.5024585071       -2.1291018678       -2.3175306172
 H          1.8218018831       -1.5793207137       -2.4155871682
 H          5.8230267206       -3.1428773627        0.9159409528
 H          5.2696389203       -1.8004901107        1.9245432814
 H          5.2146378693       -1.9816560773       -1.1142049636
 H          6.1194620705       -0.8482302027       -0.0935832669
 O          4.2902431432        0.6624567492        0.5221633712
 C          3.3249079725        1.6434152042        0.6764018741
 O          3.6604057195        2.5851820469        1.4230897244
 H         -1.4771982351        2.4736206786       -0.8928743303
 C         -1.4002400828        1.9799334773        0.0627389922
 C         -0.1921191948        1.9609019506        0.7386956910
 C         -0.1266822090        1.3059501908        1.9664093433
 C         -1.2416533179        0.6905423355        2.5013331344
 C         -2.4461140701        0.7036441063        1.8186046106
 C         -2.5187500159        1.3459113308        0.5905748122
 N         -3.7292381455        1.3456517957       -0.1205041857
 S         -4.6270772215       -0.0644969360       -0.1576225773
 O         -5.3766694037        0.0012994597       -1.3931666178
 O         -5.4180621840       -0.1636853683        1.0448894050
 C         -3.4514656299       -1.4065691768       -0.2124759360
 C         -3.5560879347       -2.4350079459        0.7022609987
 C         -2.6444993638       -3.4768818829        0.6477578920
 C         -1.6461118695       -3.4703625581       -0.3139939000
 C         -1.5550287269       -2.4305003491       -1.2261739607
 C         -2.4658057945       -1.3884738174       -1.1787527026
 H         -2.4027002794       -0.5689061668       -1.8757505168
 H         -0.7704871458       -2.4111900943       -1.9648819732
 H         -0.9328026658       -4.2787276551       -0.3533762898
 H         -2.7124724929       -4.2867269954        1.3563477173
 H         -4.3436167047       -2.3962626244        1.4375439192
 H         -3.6691600313        1.7662631220       -1.0361052060
 H         -3.3266813909        0.2296778633        2.2209734238
 H         -1.1748842426        0.1912573339        3.4560670282
 H          0.8180909374        1.2840294434        2.4930802041
 C          1.0672597489        2.5806909565        0.1850363815
 H          1.4713183532        3.2697612577        0.9398762463
 C          0.8683669043        3.3406174115       -1.1093513193
 C          0.3102640414        4.7311221145       -1.0835779792
 C          1.7566158108        4.5092583772       -1.4073053914
 H          2.0874073529        4.6595580317       -2.4241146501
 H          2.4965587975        4.7726442514       -0.6655559907
 H          0.0649326845        5.1526964612       -0.1205418536
 H         -0.3505247058        5.0392701358       -1.8799479128
 H          0.6025808076        2.6964141150       -1.9395503253
 O          0.7571602237        0.2263134119       -1.4536267110
