  62
        -98.94027016
 C          1.9869471918        1.0950865190        0.5257245472
 C          2.3891034904        0.3767517948       -0.6266700805
 C          3.1188689154       -0.8747504027       -0.3752682422
 C          3.2939388323       -1.3144503380        0.8829256185
 C          3.9750933388       -2.5921669870        1.2918881582
 C          5.5039256700       -2.4871467082        1.3794846037
 C          6.2281303267       -2.3988088981        0.0355971144
 H          7.2909891368       -2.5497435911        0.2341300824
 H          5.8975877080       -3.2149412445       -0.6076237025
 C          6.0473886583       -1.0603043439       -0.6937454777
 H          5.6834141744       -0.3087070835        0.0105384431
 H          7.0150291970       -0.7126468724       -1.0622435930
 C          5.0997139057       -1.1144899915       -1.8920771210
 H          5.5186869827       -1.7661985407       -2.6619088308
 H          5.0176426233       -0.1082108077       -2.3108081938
 C          3.6847044266       -1.6042689132       -1.5565763776
 H          3.0373215002       -1.4020046275       -2.4137699944
 H          3.6905712015       -2.6786409857       -1.3726316634
 H          5.7590601008       -1.6176050003        1.9894790457
 H          5.8609402718       -3.3770422871        1.9028141587
 H          3.5887651443       -2.8447162366        2.2817828105
 H          3.7011123537       -3.3897953948        0.6004287048
 O          2.8338874325       -0.6293042167        1.9632141296
 C          2.1938548425        0.5880539839        1.8122474970
 O          1.8594060035        1.1249875500        2.8874122731
 O          2.1580168376        0.7358038504       -1.8113804002
 C          1.2500278144        2.4254081680        0.4705685945
 C         -0.2341041556        2.1772565607        0.3932055914
 C         -1.1150854801        2.7518254850        1.3008694009
 C         -2.4694748739        2.4704520223        1.2437976595
 C         -2.9693198924        1.6022556597        0.2890862439
 C         -2.0948146103        1.0209410881       -0.6190510657
 C         -0.7431361250        1.3169671608       -0.5707286256
 H         -0.0705070936        0.8596242755       -1.2821622413
 N         -2.5961265375        0.0892873274       -1.5655211828
 S         -2.8279432568       -1.4389291880       -0.8856712146
 O         -1.8114020995       -1.7346206765        0.1014906250
 O         -2.9213438705       -2.3542201235       -2.0020360089
 C         -4.4172008437       -1.2910944665       -0.1004040245
 C         -5.5393988593       -1.2110624478       -0.9021156874
 C         -6.7806574191       -1.0724745124       -0.3018620756
 C         -6.8771231219       -1.0156687339        1.0807963295
 C         -5.7406888705       -1.0990752869        1.8711267934
 C         -4.4958165365       -1.2381491343        1.2772510543
 H         -3.5838062196       -1.3023534120        1.8493794229
 H         -5.8168673484       -1.0541865050        2.9456523726
 H         -7.8439069016       -0.9060964452        1.5462554306
 H         -7.6668911834       -1.0083170138       -0.9122867484
 H         -5.4162138755       -1.2652275912       -1.9709082939
 H         -1.9725499475       -0.0175966955       -2.3557062282
 H         -4.0214720775        1.3738022470        0.2405396792
 H         -3.1415672289        2.9249488885        1.9552289788
 H         -0.7276304605        3.4071064314        2.0672538765
 H          1.4546014683        2.9084547575        1.4390957159
 C          1.7679063200        3.3536562878       -0.6195353574
 C          0.9703897419        3.7467274317       -1.8234012306
 C          1.2160104319        4.7440932290       -0.7341143814
 H          1.8992737409        5.5590053235       -0.9183721831
 H          0.3831021411        4.9987649734       -0.0961705411
 H          1.4994478526        3.8522580308       -2.7582820739
 H         -0.0251504582        3.3460215332       -1.9323561229
 H          2.8365519040        3.2411323581       -0.7706628349
