  62
        -98.94392005
 C         -1.8197754495       -1.1479754373        0.2732433477
 C         -2.1156225524       -0.1491526056       -0.6851110216
 C         -3.5355031973       -0.0070822475       -1.0412787289
 C         -4.4441276896       -0.8201599638       -0.4721732446
 C         -5.9254728821       -0.7448625059       -0.7010422735
 C         -6.5991164532        0.1757233044        0.3263689210
 C         -5.9145864894        1.5337875061        0.4816478147
 H         -6.4920102402        2.1079894086        1.2094316142
 H         -4.9188200112        1.3860633259        0.9060201787
 C         -5.7928702606        2.3359781924       -0.8214357210
 H         -6.4892749199        1.9449303918       -1.5640663990
 H         -6.0776328719        3.3714889853       -0.6234745153
 C         -4.3840080427        2.3684216560       -1.4171804917
 H         -3.6663322677        2.6714792041       -0.6501227513
 H         -4.3633608738        3.1300269468       -2.2014617706
 C         -3.8930610765        1.0560003028       -2.0413138266
 H         -4.6348337931        0.6856451637       -2.7520045618
 H         -2.9708017010        1.2740592365       -2.5883192069
 H         -7.6388840413        0.3226623683        0.0288243776
 H         -6.5905825634       -0.3246314902        1.2974086972
 H         -6.1140192586       -0.3814387814       -1.7092543016
 H         -6.3402696761       -1.7493754174       -0.6025349762
 O         -4.1171965208       -1.7828421460        0.4273778143
 C         -2.8043854445       -1.9628627352        0.8316202482
 O         -2.6451017391       -2.8629108731        1.6806912901
 H          2.0388761422       -0.1633648280        0.1590652355
 C          1.4486535255        0.3841167773        0.8743191758
 C          0.1981404171       -0.0795515095        1.2522130962
 C         -0.5329399668        0.6558863875        2.1821369542
 C         -0.0358133198        1.8359373903        2.6985259549
 C          1.2032904463        2.3071466361        2.3012905521
 C          1.9485487556        1.5748568757        1.3856223959
 N          3.2291985193        2.0026472939        1.0120864332
 S          3.8360036771        1.7448290652       -0.5240264021
 O          4.9552084824        2.6602616641       -0.6144083019
 O          2.8278040266        1.8800270456       -1.5477068158
 C          4.4678588218        0.0806162542       -0.4872408279
 C          5.1342719850       -0.3607559780        0.6388209297
 C          5.6660116845       -1.6403578124        0.6423995196
 C          5.5325479118       -2.4494695891       -0.4757269322
 C          4.8646953907       -1.9896693012       -1.6004045947
 C          4.3257330254       -0.7122929420       -1.6085088963
 H          3.7865705994       -0.3189478621       -2.4560367931
 H          4.7609000528       -2.6193086237       -2.4701156159
 H          5.9482434226       -3.4447011747       -0.4713703288
 H          6.1838691535       -2.0027036957        1.5156986098
 H          5.2206698412        0.2951001528        1.4887411751
 H          3.5028571439        2.9037840992        1.3752210165
 H          1.5902419451        3.2338933728        2.6969577363
 H         -0.6186578984        2.3986569084        3.4124220271
 H         -1.5039694285        0.2899107393        2.4883755796
 C         -0.3860868722       -1.3659367585        0.7220578283
 H         -0.4369750772       -2.0841697558        1.5539641259
 C          0.4262130263       -1.9820244337       -0.3979742773
 C          1.5695932368       -2.8965438151       -0.0787959320
 C          0.3019852413       -3.4532639244       -0.6520277213
 H          0.3045169740       -3.8014924638       -1.6739242194
 H         -0.3557776733       -4.0119913878       -0.0020134714
 H          2.4473589316       -2.8641847175       -0.7061524890
 H          1.7791561780       -3.0858679284        0.9629860446
 H          0.5125132869       -1.3287521615       -1.2596232048
 O         -1.2431174360        0.5877647336       -1.2149756148
