  62
        -98.94478616
 C          2.0458682126        1.3245723530        0.0087813570
 C          2.6543078118        0.6765717028        1.1098585759
 C          3.8512385498       -0.1193773108        0.8088393833
 C          4.2859974602       -0.1967010340       -0.4624750110
 C          5.4625378565       -1.0098735040       -0.9175482336
 C          5.0336449572       -2.4229591335       -1.3364687765
 C          4.1435183700       -3.1265418357       -0.3119137580
 H          3.1897033768       -2.5973847205       -0.2462643279
 H          3.9284652703       -4.1252122810       -0.6984768060
 C          4.7581977777       -3.2420805837        1.0901319543
 H          5.8366652603       -3.0900056830        1.0350572836
 H          4.5924063391       -4.2553324021        1.4623093859
 C          4.1638440541       -2.2847581385        2.1248744126
 H          4.5087453004       -2.5976900226        3.1139678800
 H          3.0739938824       -2.3697388284        2.1178616281
 C          4.5349561451       -0.8056119172        1.9581360781
 H          4.2084433325       -0.2783186839        2.8593387504
 H          5.6191293500       -0.7062284331        1.8763815909
 H          4.4826504421       -2.3534984653       -2.2773358570
 H          5.9311025715       -3.0190721766       -1.5113203284
 H          5.9152306581       -0.5087294489       -1.7747538771
 H          6.1935224395       -1.0640819174       -0.1131358334
 O          3.6664304661        0.4260171053       -1.4966388391
 C          2.5261458180        1.1912448859       -1.2943352757
 O          2.0513865736        1.6875561457       -2.3322564788
 O          2.2135314919        0.7563488975        2.2890405275
 C          0.8057624487        2.1676131749        0.2493239661
 C         -0.3729831995        1.5550131357       -0.4664234443
 C         -1.1964497885        2.2549186070       -1.3372468588
 C         -2.2495904068        1.6166210317       -1.9710265752
 C         -2.5121396225        0.2791848292       -1.7423286894
 C         -1.7083295293       -0.4249192740       -0.8532626437
 C         -0.6542760921        0.2156007483       -0.2214236835
 H         -0.0262636977       -0.3347829979        0.4683304445
 N         -1.9805359176       -1.7780479734       -0.5934738705
 S         -3.5755622542       -2.2343972327       -0.3758943180
 O         -3.5218678655       -3.3940607559        0.4866916769
 O         -4.2022921800       -2.4355438717       -1.6586923455
 C         -4.3518003869       -0.8641018245        0.4637560224
 C         -3.8216645832       -0.4515174823        1.6702951847
 C         -4.3959214923        0.6287773668        2.3200500210
 C         -5.4863471656        1.2737741739        1.7563786804
 C         -6.0115979862        0.8428740984        0.5483450239
 C         -5.4390688787       -0.2351725894       -0.1077089922
 H         -5.8114772951       -0.6000454942       -1.0510850332
 H         -6.8609984940        1.3445563504        0.1136461553
 H         -5.9285914880        2.1164338992        2.2638015784
 H         -3.9881321762        0.9644452715        3.2601103525
 H         -2.9753575531       -0.9749103157        2.0861059961
 H         -1.3774718506       -2.1960905707        0.0989714708
 H         -3.3160001428       -0.2346462473       -2.2439826706
 H         -2.8729576802        2.1690413870       -2.6571804975
 H         -1.0071565027        3.2972914250       -1.5317354781
 H          0.6170405259        2.1014844880        1.3311276091
 C          1.0601393342        3.6150807665       -0.1114973187
 C          0.2765161046        4.7038940875        0.5567027499
 C          1.7226247993        4.5057226775        0.8951231698
 H          2.4410821713        5.2322241584        0.5461932502
 H          1.9716294134        4.0734370740        1.8534247279
 H          0.0017386228        5.5719038274       -0.0230650305
 H         -0.4594913010        4.4111909885        1.2898796634
 H          1.3379307160        3.7443364672       -1.1511997171
