  62
        -98.93920214
 C          1.9163323514        0.8093610015        0.6952423583
 C          2.0634975688        0.2171626994       -0.5832221616
 C          2.5044325699       -1.1862451388       -0.5920248767
 C          2.6597116980       -1.8399918315        0.5724997488
 C          3.1490330872       -3.2523940486        0.7076222349
 C          4.6762839220       -3.2997907073        0.8582412120
 C          5.4258500578       -2.4713813745       -0.1853047851
 H          5.2005934621       -1.4139168087       -0.0289359035
 H          6.4937594983       -2.6034099545        0.0010815601
 C          5.1094900919       -2.8461212217       -1.6398676146
 H          4.6527844821       -3.8357123973       -1.6759521424
 H          6.0459113656       -2.8994929590       -2.1989461855
 C          4.2106917055       -1.8469768091       -2.3708197697
 H          4.2282128311       -2.0899147415       -3.4364493464
 H          4.6170507310       -0.8387357134       -2.2581043248
 C          2.7409209556       -1.8257133254       -1.9314364671
 H          2.1843331538       -1.2195428870       -2.6523479317
 H          2.3343196015       -2.8389862454       -1.9503648525
 H          4.9373658585       -2.9207873534        1.8491203299
 H          4.9963979010       -4.3414813318        0.7975921997
 H          2.6889997967       -3.6904861329        1.5951268666
 H          2.8401575334       -3.8220541405       -0.1667414600
 O          2.4295037392       -1.2624876597        1.7803620316
 C          2.0537657277        0.0672206458        1.8697741108
 O          1.8713742741        0.4685020446        3.0385116073
 O          1.8478822974        0.8186134963       -1.6672651879
 C          1.4657642593        2.2507384959        0.8556749333
 C          0.2794230287        2.5199293605       -0.0393814343
 C          0.1714375545        3.6225333271       -0.8755138711
 C         -0.9660565722        3.8066541188       -1.6433379592
 C         -2.0101492278        2.9032530114       -1.5962720878
 C         -1.9054859340        1.7865253396       -0.7716100423
 C         -0.7754310255        1.6155971035        0.0080832501
 H         -0.7051712008        0.7528122822        0.6564861494
 N         -2.9257968144        0.8212473440       -0.7527600531
 S         -3.0682766717       -0.2558758849        0.5289790101
 O         -3.1331084483        0.4568632313        1.7869114122
 O         -2.0421385023       -1.2631974438        0.4135422818
 C         -4.6579213095       -0.9691285557        0.1504864028
 C         -5.7823296685       -0.5219328400        0.8180190173
 C         -7.0157755590       -1.0643148524        0.4923282797
 C         -7.1037502386       -2.0371950542       -0.4918505356
 C         -5.9660943843       -2.4771867235       -1.1524730166
 C         -4.7299027758       -1.9398172383       -0.8309437038
 H         -3.8173449293       -2.2551418872       -1.3097943130
 H         -6.0373644274       -3.2358587044       -1.9150287003
 H         -8.0644820290       -2.4575190836       -0.7439289912
 H         -7.9010127310       -0.7267755659        1.0067140378
 H         -5.6630459068        0.2300981896        1.5812769051
 H         -3.8197121038        1.1695896603       -1.0690023150
 H         -2.8923824473        3.0466073905       -2.2008801220
 H         -1.0383911879        4.6681330719       -2.2898691376
 H          0.9817001174        4.3297419453       -0.9407883860
 H          1.1071689523        2.3173862104        1.8977152325
 C          2.5822034501        3.2759177402        0.7151217070
 C          4.0176691746        2.8899555386        0.9100325394
 C          3.5237519544        3.2746949012       -0.4503726149
 H          3.8369320867        4.2253615603       -0.8566663173
 H          3.3929481110        2.5018792848       -1.1906315048
 H          4.6638810402        3.5740153557        1.4396346005
 H          4.2332585095        1.8485879277        1.1027812221
 H          2.2937045569        4.2459426778        1.1083168577
