  62
        -98.94536037
 C         -1.5345009704       -1.4676729293       -0.3441942813
 C         -2.7964392322       -1.3781424314        0.2978337796
 C         -3.6949632092       -0.3209999191       -0.1818780138
 C         -3.2959214749        0.4713387117       -1.1932862166
 C         -4.0788685476        1.6306640974       -1.7365705922
 C         -3.7078277752        2.9355179676       -1.0174125247
 C         -3.7083650474        2.8217459743        0.5071640147
 H         -2.9142518861        2.1380497630        0.8165935221
 H         -3.4587733136        3.8067849755        0.9069908814
 C         -5.0423098165        2.3522356747        1.1049902139
 H         -5.2801541187        2.9803882007        1.9659982112
 H         -5.8425623226        2.4863654011        0.3762159589
 C         -5.0450890529        0.9038876983        1.5980578135
 H         -5.9506461150        0.7486280892        2.1905498061
 H         -4.1900093042        0.7402046185        2.2587242478
 C         -5.0226403768       -0.1737293695        0.5062333602
 H         -5.8152083601        0.0192620189       -0.2194148365
 H         -5.2221268028       -1.1368513910        0.9849023871
 H         -4.4106045179        3.7113274945       -1.3264868054
 H         -2.7088176573        3.2372301223       -1.3407230183
 H         -3.8507032390        1.7328242269       -2.7989123905
 H         -5.1421858803        1.4298207937       -1.6218520919
 O         -2.0946373061        0.3343761687       -1.8076941501
 C         -1.1775983095       -0.6217906822       -1.3927751077
 O         -0.1121299172       -0.6060301822       -2.0385595846
 O         -3.1510000143       -2.1444407587        1.2328144519
 C         -0.5457336735       -2.4977828190        0.1796591910
 C          0.4883712772       -1.7779925093        1.0131995246
 C          0.1270733059       -1.3603544767        2.2929556111
 C          1.0226433535       -0.6837441403        3.0970415957
 C          2.2973616867       -0.4024433019        2.6369351096
 C          2.6667116839       -0.8065056233        1.3601893488
 C          1.7656193064       -1.4922625746        0.5540854278
 H          2.0743992936       -1.7824829064       -0.4365576253
 N          3.9643485188       -0.5404216385        0.8804968272
 S          4.1334735923        0.3090345536       -0.5550294760
 O          3.7269652457       -0.5112956265       -1.6641917135
 O          5.5150802886        0.7424260305       -0.5551229099
 C          3.0624042465        1.7184285379       -0.3424499180
 C          1.7426665219        1.6391253207       -0.7352505486
 C          0.9027143929        2.7087397571       -0.4643556228
 C          1.3908273980        3.8301560670        0.1870480248
 C          2.7231134412        3.8956078633        0.5680112147
 C          3.5667794356        2.8284528563        0.3083589542
 H          4.6094313352        2.8390879015        0.5826688857
 H          3.1024827398        4.7714760916        1.0692672586
 H          0.7297903509        4.6565758885        0.3959534131
 H         -0.1319480102        2.6482862204       -0.7659240521
 H          1.3857191192        0.7593677879       -1.2481614366
 H          4.5729835029       -0.1348606930        1.5783981719
 H          3.0040468849        0.1217077132        3.2624685793
 H          0.7288802385       -0.3723904425        4.0878762643
 H         -0.8717042211       -1.5769968191        2.6453162126
 H         -1.1317322116       -3.1331735916        0.8590352615
 C          0.0400531894       -3.3722011942       -0.9061446647
 C          0.6874184082       -4.6684584788       -0.5237296339
 C         -0.6302048903       -4.6705973961       -1.2374009505
 H         -0.6589418624       -4.9858070498       -2.2697134235
 H         -1.5142453622       -4.9353599239       -0.6755959481
 H          1.5677674730       -4.9825801787       -1.0635515533
 H          0.6968233543       -4.9309635943        0.5235295592
 H          0.4713776577       -2.8165623771       -1.7294873367
