  62
        -98.94147422
 C          1.5713071996        0.4028709337        0.3079983417
 C          2.7100688303        1.0133249036       -0.2718695681
 C          3.7442761768        0.0921773805       -0.7649451314
 C          3.5516741734       -1.2369381683       -0.7028967000
 C          4.5019617300       -2.2960749678       -1.1918150729
 C          5.6052356868       -2.6564094313       -0.1873764105
 C          6.6962017017       -1.5993685534       -0.0111559860
 H          7.5091060732       -2.0682498719        0.5470168794
 H          7.0916596606       -1.3201652863       -0.9883012395
 C          6.2430488763       -0.3407648357        0.7419068532
 H          6.9910785880       -0.0765771982        1.4929002846
 H          5.3137995110       -0.5505843751        1.2765667533
 C          6.0368305272        0.8881160855       -0.1436973821
 H          6.9913926254        1.1890080072       -0.5812451658
 H          5.6818066050        1.7080666235        0.4857679059
 C          5.0219957927        0.6865522325       -1.2765465080
 H          4.7861458985        1.6641328819       -1.7039254199
 H          5.4494825220        0.0576998651       -2.0571017478
 H          6.0760846337       -3.5779502802       -0.5374699935
 H          5.1423603843       -2.8663797337        0.7795955462
 H          4.9540128579       -1.9780541522       -2.1317036883
 H          3.9017546855       -3.1890342559       -1.3788480482
 O          2.4193824622       -1.7851379220       -0.1874059730
 C          1.4206972695       -0.9875205533        0.3440364135
 O          0.4572989464       -1.6243522213        0.8147130382
 O          2.8809815893        2.2556452767       -0.3841983771
 C          0.4159787853        1.1926256856        0.9031629196
 C         -0.5230359568        1.6500871586       -0.1871568741
 C         -0.1763450972        2.6603984726       -1.0779146276
 C         -1.0627978357        3.0526200936       -2.0638909053
 C         -2.3091287965        2.4608716058       -2.1712616289
 C         -2.6610408520        1.4432046517       -1.2918833838
 C         -1.7624168202        1.0395266489       -0.3147189611
 H         -2.0311124270        0.2395071464        0.3577619556
 N         -3.9042360672        0.8075492991       -1.3958000393
 S         -4.6934122630        0.2026743942       -0.0533577435
 O         -6.0744782683        0.0964161990       -0.4739280808
 O         -4.4497876919        1.0092739143        1.1196922834
 C         -4.0264952155       -1.4330700292        0.1575624171
 C         -3.5157755539       -1.8159897088        1.3810268292
 C         -3.0156255483       -3.0996470918        1.5275693097
 C         -3.0377841119       -3.9740676890        0.4529393066
 C         -3.5587866135       -3.5760206430       -0.7689282207
 C         -4.0596771858       -2.2937728661       -0.9213886399
 H         -4.4746727289       -1.9491234086       -1.8539761568
 H         -3.5724255779       -4.2604606358       -1.6020302065
 H         -2.6433070752       -4.9711780577        0.5693420368
 H         -2.6041105840       -3.4086351813        2.4748965576
 H         -3.5114817785       -1.1029925144        2.1909330366
 H         -4.5399250889        1.2061931255       -2.0704237343
 H         -3.0039830338        2.7782738290       -2.9339877186
 H         -0.7844092937        3.8362181314       -2.7524876750
 H          0.7977329201        3.1177723217       -1.0021391766
 H         -0.1359258295        0.4807055059        1.5321473608
 C          0.8587018690        2.3510666391        1.7748534401
 C         -0.1339137170        2.9552654354        2.7204548750
 C          1.0086153411        2.1424535981        3.2501613531
 H          1.8100455035        2.6522543941        3.7637052235
 H          0.7954563447        1.1584191201        3.6423550529
 H         -0.1180405955        4.0238704128        2.8708718879
 H         -1.1242895171        2.5241443723        2.7483513629
 H          1.5647110064        3.0137718369        1.2931173358
