  62
        -98.94540641
 C          2.6454028256        1.0650859394        0.2782569054
 C          2.5459106050        0.3040154610       -0.9120389378
 C          3.1637872029       -1.0293913251       -0.8716333013
 C          3.7778493062       -1.4394346434        0.2530300723
 C          4.3912266825       -2.7947395102        0.4511101972
 C          3.3757430151       -3.7784688583        1.0494554386
 C          2.0283152933       -3.7936859728        0.3262654207
 H          1.4022012687       -4.5434595422        0.8155747441
 H          1.5310135852       -2.8297877220        0.4641260491
 C          2.1162782758       -4.1025415122       -1.1748291748
 H          3.0765471164       -4.5676888626       -1.4016615944
 H          1.3360043863       -4.8232909650       -1.4281002120
 C          1.9116168214       -2.8899034183       -2.0851219406
 H          1.7754299988       -3.2530248110       -3.1074541660
 H          0.9918465537       -2.3695556004       -1.8009025291
 C          3.0612851986       -1.8740121924       -2.1098240614
 H          4.0033480400       -2.3900424873       -2.3061270054
 H          2.8698368178       -1.1781461727       -2.9318002084
 H          3.2003838078       -3.5048205857        2.0925487896
 H          3.8101402897       -4.7794314754        1.0292783938
 H          4.7539338802       -3.1670617044       -0.5046782798
 H          5.2339031642       -2.6948533269        1.1371975271
 O          3.8617594310       -0.6753481609        1.3726502663
 C          3.2780365470        0.5809698085        1.4218585750
 O          3.3851092532        1.1556634374        2.5250808312
 H          0.3752959393        0.7059941744        1.5405213690
 C         -0.1714429404        1.3052275355        0.8208490751
 C          0.5090091911        2.2819846352        0.1032144053
 C         -0.2028441489        3.0442528942       -0.8123555860
 C         -1.5532256307        2.8138422456       -1.0147143894
 C         -2.2213751368        1.8299912495       -0.3096766945
 C         -1.5207483470        1.0690851402        0.6174963509
 N         -2.1939788823        0.0651044410        1.3442875424
 S         -2.8925044404       -1.1672750964        0.4335328082
 O         -2.9695152863       -2.3021074654        1.3285113439
 O         -2.1855260642       -1.3752766018       -0.8089025107
 C         -4.5361937143       -0.5625557966        0.1167636482
 C         -4.9738378672       -0.3985836830       -1.1825989599
 C         -6.2563366325        0.0807774413       -1.4010608636
 C         -7.0725368652        0.3856897225       -0.3224944299
 C         -6.6183232078        0.2121900385        0.9766229008
 C         -5.3381713108       -0.2677107584        1.2020360789
 H         -4.9460381889       -0.4203801387        2.1936177651
 H         -7.2559241980        0.4505168624        1.8125632890
 H         -8.0685573857        0.7615096427       -0.4955080698
 H         -6.6111383008        0.2162227103       -2.4100802952
 H         -4.2999670134       -0.6416553838       -1.9886971647
 H         -1.6256161550       -0.3397139242        2.0754102282
 H         -3.2706017661        1.6436607077       -0.4709275702
 H         -2.0922542049        3.4076607454       -1.7369573538
 H          0.3020988623        3.8090043963       -1.3790068484
 C          1.9900990937        2.4333709005        0.3551396967
 H          2.1281430310        2.7801591053        1.3897776910
 C          2.6747372068        3.4052908031       -0.5816692667
 C          2.6699762575        4.8725568958       -0.2781829256
 C          3.9326408015        4.0800470887       -0.1270069428
 H          4.7261423685        4.2276874404       -0.8439917190
 H          4.2827208651        3.8550164311        0.8701933274
 H          2.6000185733        5.5692444230       -1.0997199724
 H          2.1650441811        5.1952994110        0.6196643314
 H          2.6210908737        3.0925777765       -1.6178687531
 O          1.9713383588        0.7138294023       -1.9534690008
