  62
        -98.93134999
 C         -2.2510167738       -0.7454043388        0.0911377514
 C         -3.5309027331       -1.1783564265        0.5180917155
 C         -4.6957604647       -0.5713081037       -0.1487931324
 C         -4.4894560559        0.3556973168       -1.0996484475
 C         -5.5261355692        1.1307303872       -1.8650131810
 C         -5.8113537131        2.4780971195       -1.1802106970
 C         -6.8835512278        2.4332034418       -0.0921498445
 H         -6.8911929888        3.4101573967        0.3965840069
 H         -7.8611515062        2.2921656028       -0.5578255807
 C         -6.6897947153        1.3517081741        0.9740401407
 H         -5.6398202626        1.3103385154        1.2696385668
 H         -7.2621009860        1.6450541494        1.8562637494
 C         -7.1593477135       -0.0375845645        0.5171843504
 H         -7.7429055362        0.0667871567       -0.3973016087
 H         -7.8326591652       -0.4564206634        1.2679056622
 C         -6.0421457144       -1.0694266877        0.3013303760
 H         -5.8421119572       -1.5919281883        1.2421266409
 H         -6.3891737470       -1.8279125594       -0.4084482188
 H         -6.1293050470        3.1961948770       -1.9387761071
 H         -4.8715461345        2.8434583657       -0.7580829633
 H         -6.4347836870        0.5477921154       -1.9822601695
 H         -5.1019560895        1.3254611108       -2.8522403915
 O         -3.2436423707        0.7655886238       -1.4616088128
 C         -2.0966791255        0.2464456158       -0.8785272488
 O         -1.0443038426        0.7515566294       -1.3097473791
 O         -3.6955150442       -2.0324950112        1.4306259644
 C         -1.0405280161       -1.3584970600        0.7715617169
 C         -0.0634383339       -0.2861842392        1.1802158662
 C         -0.4306288978        0.6096619734        2.1813776771
 C          0.4313133506        1.6107275910        2.5844707559
 C          1.6835437754        1.7307038043        2.0080658920
 C          2.0554528512        0.8481702887        1.0010302045
 C          1.1844283230       -0.1528327682        0.5942017046
 H          1.4900706135       -0.8105780940       -0.2021521143
 N          3.3051460913        0.9674322783        0.3737270000
 S          4.0864474815       -0.4265599107       -0.1618222001
 O          3.5892331303       -0.7847413351       -1.4659776040
 O          4.0147304197       -1.4556334877        0.8522511919
 C          5.7563172359        0.1838383229       -0.3069471710
 C          6.0858810323        0.9413348635       -1.4153894489
 C          7.3713471103        1.4474943608       -1.5227601317
 C          8.3009484881        1.1894837824       -0.5259422469
 C          7.9564604694        0.4257317716        0.5789872887
 C          6.6717594257       -0.0822842528        0.6935509796
 H          6.3605476967       -0.6864606443        1.5304745856
 H          8.6823488592        0.2240561144        1.3501272917
 H          9.3009888181        1.5839869148       -0.6127524331
 H          7.6432179930        2.0393269731       -2.3818789225
 H          5.3324658446        1.1076675798       -2.1678703550
 H          3.9344537767        1.5941136958        0.8559156596
 H          2.3606437167        2.5096632245        2.3244597223
 H          0.1311196510        2.2989056752        3.3604824545
 H         -1.4078662068        0.5117719888        2.6351598025
 H         -1.4453215501       -1.8146239120        1.6911530323
 C         -0.3846063406       -2.4836169556       -0.0142843069
 C         -1.1986407167       -3.4108211369       -0.8646572032
 C         -0.2415525781       -2.4526724754       -1.5049502824
 H          0.6717443746       -2.8378066255       -1.9358966937
 H         -0.6370507571       -1.5970031676       -2.0297681429
 H         -0.9521949784       -4.4618484303       -0.8606928215
 H         -2.2562561135       -3.2080090926       -0.9509006955
 H          0.4372783456       -2.9321939835        0.5377929661
