  62
        -98.93416590
 C         -2.5391608122       -0.2194008937        0.5361847792
 C         -2.1128965774        0.3722558936       -0.6763568638
 C         -1.8039165328        1.8173375904       -0.6449075004
 C         -1.9337137976        2.4878903828        0.5133787835
 C         -1.6772015274        3.9453228240        0.7987423360
 C         -0.1842796322        4.2828367937        0.9026808062
 C          0.6735908308        3.7329945590       -0.2329764595
 H          1.7110411179        4.0097181449       -0.0241502763
 H          0.6300137954        2.6423186123       -0.2232084981
 C          0.3210164372        4.2564828813       -1.6240650354
 H          0.3549364127        5.3484321306       -1.6153181091
 H          1.1012872410        3.9044362776       -2.3031079483
 C         -1.0299334025        3.8108745948       -2.1929978446
 H         -0.9984761060        3.9792677149       -3.2733220146
 H         -1.8456377790        4.4194790638       -1.8105573737
 C         -1.3460572778        2.3333319162       -1.9867552238
 H         -2.1282034278        2.0364678718       -2.6956711215
 H         -0.4692271610        1.7319682430       -2.2539997659
 H          0.1954684811        3.8659576673        1.8393936039
 H         -0.0823490859        5.3693325266        0.9487910818
 H         -2.1497111883        4.1594374279        1.7605819287
 H         -2.1572714287        4.5658321335        0.0477166611
 O         -2.3334757436        1.8710636898        1.6654330426
 C         -2.6025954849        0.5189730079        1.7171788673
 O         -2.8927071105        0.0952060899        2.8571110286
 O         -1.9953661400       -0.2624280882       -1.7569974597
 C         -2.7922888939       -1.7136241808        0.6519303829
 C         -1.6632364616       -2.4612212147       -0.0168018773
 C         -1.8350262905       -3.5296311940       -0.8848441980
 C         -0.7347171758       -4.1523530466       -1.4524586160
 C          0.5476543577       -3.7077553195       -1.1956123797
 C          0.7286602884       -2.6288719482       -0.3343540802
 C         -0.3675341461       -2.0499637631        0.2768072947
 H         -0.2154361139       -1.2347778384        0.9715615299
 N          2.0143618782       -2.0952268565       -0.1240772280
 S          2.2382983028       -0.6402545107        0.6695528021
 O          2.0866368745       -0.7939219742        2.1037506331
 O          1.4245921771        0.3639757829        0.0365362325
 C          3.9555235275       -0.3610679304        0.2805089840
 C          4.9328179692       -0.7083907845        1.1933297357
 C          6.2637835972       -0.5127178085        0.8587337721
 C          6.5931315182        0.0221463202       -0.3774305801
 C          5.6010991359        0.3680752568       -1.2831415688
 C          4.2691017203        0.1748134575       -0.9539808587
 H          3.4624175831        0.4342596857       -1.6200340436
 H          5.8600228254        0.7868517549       -2.2422393096
 H          7.6292742595        0.1734985580       -0.6357656661
 H          7.0368418712       -0.7772180334        1.5620737851
 H          4.6288579996       -1.1108826147        2.1462858256
 H          2.7464467148       -2.7696516561        0.0376315038
 H          1.4016335781       -4.1733207472       -1.6615511400
 H         -0.8829199091       -4.9863632374       -2.1217177446
 H         -2.8279317805       -3.8669682091       -1.1333106788
 H         -2.7320756042       -1.9222384241        1.7345088650
 C         -4.1742888370       -2.1630466466        0.2003644903
 C         -5.3150001802       -1.1943064864        0.1146430111
 C         -4.7364264262       -1.7826662343       -1.1351664076
 H         -5.3211374013       -2.5150308230       -1.6724279959
 H         -4.1262139170       -1.1560317803       -1.7656120434
 H         -6.2908058639       -1.5240054473        0.4390087364
 H         -5.1077682587       -0.1573050561        0.3374105469
 H         -4.4198061927       -3.1542178523        0.5692993105
