  62
        -98.93814131
 C          2.4513052630       -0.8470082291       -0.8343246250
 C          3.5053151700       -0.8583262960        0.1119102841
 C          4.5347909962        0.1787159768       -0.0640129131
 C          4.4186025143        1.0697590823       -1.0644741875
 C          5.3649216686        2.2063476792       -1.3188286342
 C          4.9204143413        3.4780630524       -0.5828511900
 C          4.5905742348        3.2552852143        0.8931684267
 H          3.7078692295        2.6158406323        0.9695772349
 H          4.3207452391        4.2254669835        1.3160624164
 C          5.7330850079        2.6404150470        1.7134714397
 H          5.8188035968        3.1841388536        2.6566367974
 H          6.6779742517        2.7621474304        1.1825634974
 C          5.5369265886        1.1649381353        2.0664900949
 H          4.5499784685        1.0228960139        2.5142726696
 H          6.2803661875        0.8942922511        2.8210603792
 C          5.6850721703        0.1760224375        0.9034868887
 H          5.7171367582       -0.8316450893        1.3279086059
 H          6.6267121918        0.3593201105        0.3820759462
 H          4.0285012957        3.8703236771       -1.0768075424
 H          5.7134892840        4.2227381343       -0.6717175205
 H          5.3818669287        2.4054993885       -2.3916788061
 H          6.3638764938        1.9184995398       -0.9970658858
 O          3.3825469682        1.0619580394       -1.9416851294
 C          2.3781666142        0.1166599747       -1.8444678253
 O          1.4847832917        0.2303727752       -2.7088069886
 O          3.6070455422       -1.6842824087        1.0560362991
 C          1.3082591721       -1.8506990065       -0.8028507148
 C          0.3081048540       -1.4395451058        0.2516778327
 C          0.4944577434       -1.7193126510        1.6004958004
 C         -0.4425880181       -1.3112787339        2.5331189338
 C         -1.5769442444       -0.6195161911        2.1465888627
 C         -1.7685767421       -0.3282672004        0.8023425751
 C         -0.8298091439       -0.7433308534       -0.1328714808
 H         -0.9712978974       -0.5065953947       -1.1797639150
 N         -2.9087135038        0.3969528933        0.3967083497
 S         -4.4020123095       -0.1879419397        0.9341487580
 O         -4.5640098442        0.1776506068        2.3183919066
 O         -4.5201441274       -1.5985331701        0.6354706619
 C         -5.5230753354        0.7583660900       -0.0761765329
 C         -6.0826631652        0.1780459335       -1.1983034747
 C         -6.9381900074        0.9318656287       -1.9864159112
 C         -7.2149709902        2.2462742950       -1.6421106735
 C         -6.6446610668        2.8149502021       -0.5127084685
 C         -5.7894980057        2.0666694712        0.2802589153
 H         -5.3306256075        2.4632849905        1.1707591024
 H         -6.8644497040        3.8365989112       -0.2478634852
 H         -7.8815095906        2.8303216851       -2.2568718034
 H         -7.3848450612        0.4919044869       -2.8635551000
 H         -5.8458779920       -0.8496706591       -1.4231341612
 H         -2.9299446393        0.5154791509       -0.6080296620
 H         -2.3173416683       -0.3086047150        2.8656488694
 H         -0.2881384503       -1.5346290644        3.5782887052
 H          1.3874445522       -2.2357010887        1.9146376235
 H          0.8132132226       -1.7618367176       -1.7793775042
 C          1.7730037399       -3.2828884797       -0.6348761850
 C          0.8161986240       -4.3916749430       -0.9504996006
 C          1.9845870972       -4.1299527843       -1.8518116132
 H          2.8035386679       -4.8334230211       -1.8530451708
 H          1.7950427178       -3.6796146229       -2.8155472552
 H          0.8300601425       -5.2758217535       -0.3319420406
 H         -0.1681579224       -4.1172652439       -1.2999928992
 H          2.4562202164       -3.4258061563        0.1910091054
