  62
        -98.93939761
 C          2.2852078999        0.8612567580        0.6320720399
 C          3.4338915701        0.9242782179       -0.1948811599
 C          4.4978284398       -0.0469041225        0.1057152401
 C          4.3313385494       -0.9291244826        1.1065187899
 C          5.3093691391       -2.0055202829        1.4769430899
 C          5.0156816189       -3.3103413827        0.7234804897
 C          4.8277588992       -3.1259625124       -0.7824074203
 H          4.6574400590       -4.1156458323       -1.2118533305
 H          3.9224480694       -2.5400828121       -0.9586977004
 C          6.0121529295       -2.4562561726       -1.4931624900
 H          6.9020537594       -2.5152947829       -0.8655526399
 H          6.2257833095       -3.0069291625       -2.4116121301
 C          5.7693815499       -0.9998067224       -1.8926204198
 H          6.5699269501       -0.6955692925       -2.5720288296
 H          4.8271943400       -0.9226922121       -2.4408874600
 C          5.7397441600        0.0110714074       -0.7395577497
 H          6.6309911898       -0.1099344029       -0.1208020495
 H          5.7572363803        1.0134302375       -1.1768305095
 H          4.1008008987       -3.7468503925        1.1312556794
 H          5.8359228287       -4.0066350529        0.9074500797
 H          6.3181393892       -1.6639047631        1.2530959202
 H          5.2268396388       -2.1893213230        2.5494943099
 O          3.2136862393       -0.9657117924        1.8772644797
 C          2.1752194995       -0.0770451621        1.6634828297
 O          1.2203423693       -0.2127780620        2.4569173095
 H         -1.4779360601        1.0345538389        0.7106194692
 C         -1.1416271899        1.0150769490       -0.3153083707
 C          0.1674771503        1.3598047387       -0.6205841204
 C          0.5834502305        1.3089176188       -1.9469972504
 C         -0.2948506094        0.9117547092       -2.9382582906
 C         -1.5980969196        0.5642053295       -2.6302184209
 C         -2.0270506198        0.6211775294       -1.3088794410
 N         -3.3630744399        0.3263582496       -0.9852426612
 S         -3.7326751804       -0.4032430505        0.4901815686
 O         -3.6326651903        0.5830374693        1.5361345587
 O         -2.9563150707       -1.6118277407        0.6590257085
 C         -5.4488560804       -0.7986862001        0.2103724582
 C         -5.8167743507       -2.0970409799       -0.0862383221
 C         -7.1538019607       -2.3773954196       -0.3226373924
 C         -8.0938048905       -1.3598294693       -0.2623007924
 C         -7.7091967802       -0.0610467595        0.0369826979
 C         -6.3749011702        0.2255608902        0.2762757082
 H         -6.0301006300        1.2163760600        0.5217242884
 H         -8.4430637000        0.7271406407        0.0853546079
 H         -9.1332102605       -1.5806770391       -0.4469659326
 H         -7.4561443809       -3.3865146994       -0.5518902526
 H         -5.0518027408       -2.8563958901       -0.1150736021
 H         -3.8524150899       -0.1304152901       -1.7434125314
 H         -2.2812642195        0.2548096898       -3.4067399911
 H          0.0402374107        0.8691089293       -3.9637128605
 H          1.6017972006        1.5716163686       -2.1882759002
 C          1.0975695602        1.7997592083        0.4853391298
 H          0.5422033800        1.7189258283        1.4304178897
 C          1.5002589206        3.2499850282        0.2931295701
 C          0.5102767108        4.3224313184        0.6289581201
 C          1.7155935506        4.1157066780        1.4956666303
 H          2.5066327707        4.8498260978        1.4664560805
 H          1.5737450103        3.6646110879        2.4675457402
 H          0.4710694511        5.2012569285        0.0040171602
 H         -0.4499869694        4.0116729486        1.0138483799
 H          2.1495198708        3.4077039382       -0.5574465198
 O          3.5912215005        1.7412118780       -1.1401741298
