  62
        -98.93320348
 C         -2.6439303552       -0.5502494509       -0.2235404262
 C         -2.2451966820       -1.4707528563        0.7732785198
 C         -1.4663565048       -2.6409654744        0.3102031506
 C         -1.1384963391       -2.7471542013       -0.9873512349
 C         -0.2850076898       -3.7971349637       -1.6454290914
 C          1.1910071311       -3.3611775118       -1.6685518906
 C          2.0042797262       -3.7959338005       -0.4511422115
 H          2.1156106731       -4.8828959144       -0.4596782589
 H          2.9998428907       -3.3580851442       -0.5550098119
 C          1.4159475218       -3.3626363734        0.8932158304
 H          2.2199016142       -3.3755358482        1.6320810108
 H          1.0639910504       -2.3329938148        0.8087465320
 C          0.2798583763       -4.2751517692        1.3772512055
 H          0.2656713761       -5.1818530280        0.7724466864
 H          0.4814563693       -4.5909948841        2.4033577818
 C         -1.1141900740       -3.6359522215        1.3842070010
 H         -1.2553182765       -3.0881707842        2.3214799555
 H         -1.8689087404       -4.4306555214        1.3727636604
 H          1.6654941152       -3.7718525175       -2.5628772603
 H          1.2205741387       -2.2704666709       -1.7496748769
 H         -0.4040903431       -4.7583725478       -1.1536157299
 H         -0.6409768678       -3.8826672433       -2.6744914508
 O         -1.5315047852       -1.8294536917       -1.9156274669
 C         -2.2644933557       -0.7193167415       -1.5583147981
 O         -2.5437198224        0.0419364291       -2.5097749980
 O         -2.5101202176       -1.3544831824        1.9979945852
 C         -3.3719497756        0.7623288269        0.0412078674
 C         -2.3926926775        1.8940614487       -0.1612045532
 C         -2.7558616479        3.0771580336       -0.7919163813
 C         -1.8166716607        4.0683885985       -1.0184041907
 C         -0.4927262678        3.8769398132       -0.6663829785
 C         -0.1188906304        2.6933293292       -0.0419627401
 C         -1.0769733834        1.7359721776        0.2485426448
 H         -0.7797825365        0.8262964050        0.7464324196
 N          1.2302448614        2.4184587756        0.2848681833
 S          1.8635516784        1.0595810422       -0.5149101904
 O          1.9397769215        1.3395018360       -1.9351242491
 O          1.1332998449       -0.1157861773       -0.1292790776
 C          3.5053902588        1.0081341869        0.1767690567
 C          4.5362725754        1.6657806560       -0.4668000858
 C          5.8020956975        1.6420250717        0.0972705848
 C          6.0135037451        0.9662448635        1.2896053065
 C          4.9689876374        0.3089476550        1.9225504299
 C          3.7008912154        0.3295960834        1.3638941466
 H          2.8605558357       -0.1733336572        1.8140721919
 H          5.1367247003       -0.2192006841        2.8472627124
 H          6.9993075692        0.9483993701        1.7267668965
 H          6.6167963715        2.1486065953       -0.3945374007
 H          4.3293275700        2.1653576823       -1.3995638150
 H          1.8271291509        3.2076185451        0.0648097708
 H          0.2494536504        4.6297651744       -0.8877061494
 H         -2.1111941322        4.9852728676       -1.5063363472
 H         -3.7726131389        3.2072264271       -1.1328946802
 H         -4.1350114468        0.8536422353       -0.7510207981
 C         -4.0921452445        0.8367767611        1.3769439180
 C         -3.5173831515        1.5426336145        2.5641219652
 C         -4.6930952140        2.1290894393        1.8453904861
 H         -5.6594291761        2.0980987219        2.3253001746
 H         -4.5224564111        3.0112889582        1.2478140282
 H         -3.6639926531        1.0920790595        3.5333806235
 H         -2.5573445755        2.0223051138        2.4478527873
 H         -4.6587806954       -0.0640701501        1.5817354671
