  62
        -98.93626942
 C          0.8461830377        1.4037486284        0.3167655707
 C          1.0881699659        0.3220433353       -0.5696169298
 C          2.2506657046       -0.5224518693       -0.2464716498
 C          2.8856876288       -0.3807593515        0.9278004668
 C          4.0514294935       -1.1948661070        1.4174312516
 C          5.4118919782       -0.6848809133        0.9220048196
 C          5.6957557401       -0.9257867571       -0.5613986870
 H          6.7546803836       -0.7148050623       -0.7233714064
 H          5.5351533816       -1.9785077872       -0.7958215874
 C          4.8684141569       -0.0521875706       -1.5152845954
 H          5.5213315312        0.3681338070       -2.2836779186
 H          4.4447034042        0.7897876369       -0.9625260350
 C          3.7401660454       -0.7918301585       -2.2357514222
 H          4.1647287460       -1.5479190058       -2.9001235302
 H          3.1967324073       -0.0718728485       -2.8539089444
 C          2.7333232418       -1.4739168432       -1.2993160419
 H          1.8701224008       -1.7879342300       -1.8907653778
 H          3.1895390769       -2.3528113273       -0.8447990956
 H          6.1839717689       -1.1928665710        1.5044452550
 H          5.4834180142        0.3839323610        1.1367549592
 H          3.9241625175       -2.2369642074        1.1241788999
 H          4.0385788814       -1.1331367793        2.5075020135
 O          2.5023370134        0.5469466871        1.8424775828
 C          1.5474038057        1.4957092931        1.5289755601
 O          1.3972099626        2.3602610485        2.4167762189
 O          0.4065910709        0.0414216694       -1.5882713596
 C         -0.1477812774        2.5390279585        0.1153740081
 C         -1.5894014526        2.1586705380        0.3676146282
 C         -2.3614820914        2.9611635566        1.2031223252
 C         -3.6838352647        2.6515899181        1.4593186401
 C         -4.2549527826        1.5198969961        0.9070496731
 C         -3.4922860937        0.7095706404        0.0726205989
 C         -2.1731715138        1.0411118554       -0.2107727993
 H         -1.6051934413        0.4165387697       -0.8816472571
 N         -4.0525264651       -0.4519984095       -0.4703811194
 S         -3.1436428372       -1.7749871498       -0.9137885371
 O         -2.5982222626       -1.5916916872       -2.2333690677
 O         -4.0708043866       -2.8833284150       -0.7826912466
 C         -1.8399024167       -1.9839481591        0.2888151474
 C         -0.6796578148       -2.5975451630       -0.1352420415
 C          0.3282935910       -2.8413483431        0.7832703354
 C          0.1664545161       -2.4557116354        2.1040554261
 C         -1.0060174244       -1.8433760980        2.5161692850
 C         -2.0260136923       -1.6154184677        1.6059908991
 H         -2.9467349324       -1.1486280889        1.9157564016
 H         -1.1297025119       -1.5415403330        3.5439769108
 H          0.9581706985       -2.6323671874        2.8152062735
 H          1.2348289327       -3.3291711098        0.4648277925
 H         -0.5835239038       -2.8567672432       -1.1772907676
 H         -4.9519866096       -0.7179193629       -0.0984590721
 H         -5.2810348728        1.2604196659        1.1184833699
 H         -4.2705358434        3.2856072905        2.1062649597
 H         -1.9103000382        3.8288173124        1.6618875089
 H          0.1234857481        3.2464812541        0.9145985672
 C         -0.0548853595        3.3510906264       -1.1752411974
 C          1.1366481821        3.3231026762       -2.0818156127
 C         -0.1835012112        2.7970683712       -2.5598086737
 H         -0.7363858681        3.3763466571       -3.2856027912
 H         -0.2850291332        1.7307773737       -2.6751201724
 H          1.5073771795        4.2562752225       -2.4800150725
 H          1.9106604352        2.6001697671       -1.8672863076
 H         -0.5088006494        4.3285762193       -1.0322744328
