  62
        -98.93749147
 C         -1.9450679583       -0.9112849324        0.0829647189
 C         -2.2251351386        0.0495346215        1.0792896957
 C         -2.5947178556        1.3949074626        0.6092897699
 C         -2.6081717422        1.6425303081       -0.7120777499
 C         -3.0011761167        2.9211750710       -1.3994631826
 C         -4.4903346218        2.8966442844       -1.7849021396
 C         -5.4465524044        3.3855570069       -0.6976839981
 H         -5.3377499343        4.4660671419       -0.5841248653
 H         -6.4628315222        3.1927950002       -1.0486157475
 C         -5.2681774606        2.7299217510        0.6740839388
 H         -5.1168750823        1.6558814099        0.5519813397
 H         -6.1958966630        2.8647767122        1.2334223268
 C         -4.1091255645        3.3301469087        1.4838826386
 H         -4.4651310846        3.6005812785        2.4801239373
 H         -3.7839483655        4.2558676911        1.0096160796
 C         -2.9009005023        2.4027314325        1.6836938169
 H         -2.0041257132        3.0093482953        1.8533510837
 H         -3.0458249653        1.8050981336        2.5895573899
 H         -4.6332881759        3.5232345731       -2.6674756564
 H         -4.7446812928        1.8716267462       -2.0662586149
 H         -2.7673722352        3.7796930375       -0.7768974298
 H         -2.4042939537        2.9769524159       -2.3121966778
 O         -2.3045689759        0.6937311108       -1.6402367932
 C         -1.9620543825       -0.5960543883       -1.2749480458
 O         -1.7068244945       -1.3526765124       -2.2315480437
 O         -2.1784787344       -0.2083245816        2.3150881696
 C         -1.5536255916       -2.3156756277        0.4974602306
 C         -0.1773563395       -2.6662159802       -0.0151733389
 C          0.1664809115       -3.9472335121       -0.4292352399
 C          1.4514278341       -4.2211018781       -0.8649009671
 C          2.4167737036       -3.2326847825       -0.8941073364
 C          2.0819786583       -1.9452808012       -0.4857305013
 C          0.7982926516       -1.6778954358       -0.0403694661
 H          0.5532242820       -0.6766819615        0.2850884256
 N          3.0283562847       -0.9104205306       -0.5528839001
 S          2.8595035675        0.4633002058        0.4029095378
 O          2.6652825898        0.0936641720        1.7880308020
 O          1.8585662285        1.3226763458       -0.1803488848
 C          4.4760896629        1.1845569717        0.1875406253
 C          4.7241429420        1.9370884364       -0.9448433882
 C          5.9893192704        2.4715201537       -1.1304452124
 C          6.9803403524        2.2452647674       -0.1866658974
 C          6.7162066727        1.4899753059        0.9459608154
 C          5.4532288677        0.9517572393        1.1370305378
 H          5.1981289765        0.3664848700        2.0057859499
 H          7.4872259867        1.3187244082        1.6796764761
 H          7.9637350819        2.6629817264       -0.3335575422
 H          6.1968568976        3.0618323506       -2.0083133498
 H          3.9197656595        2.0926305995       -1.6450587090
 H          3.9831113780       -1.2378296657       -0.5956816569
 H          3.4164672852       -3.4466689010       -1.2394193984
 H          1.7045340390       -5.2204987265       -1.1847715601
 H         -0.5732069484       -4.7308370700       -0.4126103184
 H         -1.5084116023       -2.2945198493        1.5978487299
 C         -2.6197986388       -3.3057014862        0.0719322720
 C         -2.9175565380       -4.5133738370        0.9082185826
 C         -3.8926223749       -3.3770572735        0.8596751391
 H         -4.8221775601       -3.5127231534        0.3276826726
 H         -3.9736429372       -2.7334697702        1.7237713176
 H         -3.1815836482       -5.4334001728        0.4088001982
 H         -2.3453976787       -4.6481720076        1.8137628858
 H         -2.6919394516       -3.3950545676       -1.0063676494
