  62
        -98.93588408
 C         -2.7247891458       -1.1238490869       -0.3020242393
 C         -2.4562291253        0.0250327421       -1.0859811923
 C         -3.3227122910        1.1890953344       -0.8375634351
 C         -4.2972771329        1.1097328604        0.0853232100
 C         -5.2069565479        2.2373423837        0.4761779727
 C         -4.6260576699        3.0390069681        1.6494665159
 C         -3.1655188396        3.4470865805        1.4562476866
 H         -2.8741148405        4.0335151212        2.3302748726
 H         -2.5424649339        2.5494743727        1.4506600931
 C         -2.8965945021        4.2599850179        0.1820640819
 H         -2.2468729287        5.1006057353        0.4342625920
 H         -3.8312745034        4.6751211583       -0.1964539816
 C         -2.2005375064        3.4786294182       -0.9338440888
 H         -1.8637712011        4.1928421704       -1.6898432770
 H         -1.3128196849        2.9829830358       -0.5327637464
 C         -3.0589775818        2.4271411298       -1.6485335129
 H         -3.9968069560        2.8789853878       -1.9774125893
 H         -2.5087889373        2.0943069625       -2.5335881601
 H         -4.6938658878        2.4285447946        2.5529167431
 H         -5.2389539967        3.9304000240        1.7949305404
 H         -5.3600094589        2.8884404448       -0.3822877351
 H         -6.1673599335        1.8151134855        0.7764724927
 O         -4.5341184121       -0.0126781527        0.8108749890
 C         -3.7560912914       -1.1437333180        0.6428184197
 O         -4.0802534185       -2.0988063950        1.3764830763
 H          0.0214808249       -0.5625333043       -0.5263362403
 C          0.2359687814       -1.3216258047        0.2119639766
 C         -0.6693914109       -2.3580360780        0.3956570974
 C         -0.3758933839       -3.3365326896        1.3371828252
 C          0.7956930428       -3.2758580491        2.0725971185
 C          1.6946131020       -2.2408222560        1.8874779868
 C          1.4087521467       -1.2564509787        0.9498572467
 N          2.3062976701       -0.1818034887        0.7559946483
 S          3.8794355445       -0.6165408854        0.3103066209
 O          3.8497994360       -1.4353559114       -0.8825791418
 O          4.5336280380       -1.1971973307        1.4551666095
 C          4.5800130112        0.9811941270       -0.0459055854
 C          4.5842343312        1.4431943880       -1.3479976766
 C          5.1039784380        2.7010622107       -1.6104934507
 C          5.6038737803        3.4716546147       -0.5715526589
 C          5.5912556380        2.9940854458        0.7306381941
 C          5.0739636001        1.7370770862        0.9998411787
 H          5.0497772775        1.3212921231        1.9934969128
 H          5.9822019842        3.5961606005        1.5349271795
 H          6.0075534163        4.4500568213       -0.7791261431
 H          5.1160921864        3.0741489060       -2.6220054768
 H          4.1921258015        0.8074717375       -2.1260827515
 H          1.9435175925        0.4597682951        0.0612373999
 H          2.6157572404       -2.1906777929        2.4446262990
 H          1.0121534161       -4.0437935747        2.7999737905
 H         -1.0764641156       -4.1435126958        1.4966463256
 C         -1.9337702574       -2.4174605877       -0.4225963541
 H         -2.5806790168       -3.1885263538        0.0239422641
 C         -1.6861823224       -2.8205166336       -1.8719210983
 C         -0.3314914761       -2.8920756858       -2.5049028791
 C         -1.0706524817       -4.1532831189       -2.1806844739
 H         -1.4800620230       -4.7408168368       -2.9883719801
 H         -0.7122335242       -4.7375651373       -1.3461715451
 H          0.5358902938       -2.6428729924       -1.9127146015
 H         -0.2485332961       -2.5887672157       -3.5376875713
 H         -2.4956639300       -2.5019692042       -2.5210160209
 O         -1.5437769590        0.1013721781       -1.9503717247
