  62
        -98.94302574
 C          1.9576925227        0.0828139924       -0.3105036481
 C          2.8202383468       -0.7326260439        0.4629003288
 C          4.1359634985       -0.1554108390        0.7729350402
 C          4.4423607515        1.0884139882        0.3650661116
 C          5.7260023804        1.8236137606        0.6399970714
 C          6.8597926134        1.4918036517       -0.3398325554
 C          7.4836662290        0.1063463648       -0.1673209159
 H          8.3978646209        0.0904772967       -0.7641117731
 H          7.7730074183       -0.0329648791        0.8747634065
 C          6.5822946862       -1.0533015220       -0.6135906163
 H          5.7811320197       -0.6679704485       -1.2485113194
 H          7.1624192801       -1.7523780176       -1.2202286472
 C          5.9636429080       -1.8529761262        0.5329509189
 H          5.3179622246       -2.6230141943        0.1035917262
 H          6.7533560621       -2.3522421292        1.0987091708
 C          5.1216920545       -1.0160255182        1.5047688804
 H          5.7689682952       -0.4035920046        2.1319528175
 H          4.5565620647       -1.6982467109        2.1442207429
 H          6.4820953004        1.5975165553       -1.3595461007
 H          7.6427845110        2.2401808368       -0.1969337511
 H          6.0537341975        1.6200083789        1.6598773030
 H          5.4973945655        2.8882168174        0.5542997726
 O          3.5761853592        1.8530165338       -0.3521762903
 C          2.3354372156        1.3647943246       -0.7224858690
 O          1.6635887413        2.1590219802       -1.4128331811
 O          2.5315360835       -1.8810074327        0.8892413833
 C          0.5684353217       -0.3540799825       -0.7502874508
 C         -0.4388327869       -0.1518526976        0.3565651923
 C         -0.3511372322       -0.8479788724        1.5584954405
 C         -1.2810569763       -0.6363821836        2.5590947577
 C         -2.3257758883        0.2531016762        2.3754050267
 C         -2.4243694181        0.9506309482        1.1783518645
 C         -1.4783070540        0.7501665170        0.1817123534
 H         -1.5609316199        1.3112560082       -0.7372050646
 N         -3.4790692434        1.8579936753        0.9547205108
 S         -4.4673747824        1.6016958357       -0.3725169204
 O         -3.7181641966        1.7804476734       -1.5889452562
 O         -5.5963781653        2.4825262621       -0.1739272662
 C         -4.9851436492       -0.0974342434       -0.2046390232
 C         -4.1585480548       -1.1015677889       -0.6683615870
 C         -4.5263882768       -2.4209786902       -0.4573229957
 C         -5.7075541433       -2.7123992941        0.2075499545
 C         -6.5291238907       -1.6924249534        0.6633886668
 C         -6.1633646634       -0.3713132262        0.4624501852
 H         -6.7722668092        0.4532193366        0.7966322873
 H         -7.4487454340       -1.9220970716        1.1770690164
 H         -5.9887891241       -3.7408937536        0.3700263878
 H         -3.8855168244       -3.2125672468       -0.8108250927
 H         -3.2482326559       -0.8400748286       -1.1823836299
 H         -4.0495356622        2.0250345453        1.7721189677
 H         -3.0550974544        0.4133313451        3.1552185657
 H         -1.1971163391       -1.1762222632        3.4899562590
 H          0.4629935141       -1.5407782770        1.7047072534
 H          0.2951016350        0.3213277360       -1.5729140118
 C          0.5243372886       -1.7781664099       -1.2695867336
 C         -0.5340869805       -2.1553163666       -2.2600787702
 C          0.8963586295       -2.0464053499       -2.6950401414
 H          1.4393662557       -2.9508434362       -2.9244580011
 H          1.1805170731       -1.2006493794       -3.3051136086
 H         -0.9764279286       -3.1373600754       -2.1950815719
 H         -1.2162660200       -1.3830023563       -2.5853020480
 H          0.8167424766       -2.5157692680       -0.5345482639
