  62
        -98.94356356
 C         -0.4754198111       -1.8176278471       -0.1177439217
 C         -1.6453561953       -1.8515117954        0.6713185488
 C         -2.7754617742       -1.0176466649        0.2208788183
 C         -2.6280565634       -0.2787578288       -0.8943124038
 C         -3.6500319563        0.6273545779       -1.5276043899
 C         -3.8029774328        1.9806507757       -0.8046053864
 C         -3.6190494076        1.9338638783        0.7120499225
 H         -2.6797314654        1.4302924541        0.9550807244
 H         -3.5241254891        2.9622097456        1.0733522722
 C         -4.7664826617        1.2778613469        1.4777872205
 H         -5.6562634726        1.9060177454        1.3848885052
 H         -4.4869436816        1.2507401504        2.5342609858
 C         -5.1388433474       -0.1353880137        1.0339788635
 H         -5.5881065667       -0.1134750383        0.0448571656
 H         -5.9090845481       -0.4997811852        1.7204919107
 C         -4.0020324571       -1.1528679015        1.0890664710
 H         -3.6243339355       -1.2053300575        2.1166940089
 H         -4.4180897603       -2.1466075399        0.8795807922
 H         -3.0531338789        2.6663783113       -1.2042847072
 H         -4.7869119375        2.3919450164       -1.0355983330
 H         -3.3159943289        0.8120432355       -2.5504203869
 H         -4.6014946449        0.1043578072       -1.5824879057
 O         -1.4674186516       -0.2494740122       -1.6068351554
 C         -0.3648271915       -1.0013810272       -1.2426436658
 O          0.6251508705       -0.8654666195       -1.9846741034
 O         -1.7496010735       -2.5568159522        1.7137516926
 C          0.7105102823       -2.6731144366        0.2799043345
 C          1.9437192145       -1.8340766447        0.5063830153
 C          3.2252109652       -2.2954856876        0.2274290041
 C          4.3284436314       -1.4989504021        0.4784211561
 C          4.1805029031       -0.2257993938        0.9974606368
 C          2.9033109429        0.2436796324        1.2817741157
 C          1.8023899984       -0.5640814739        1.0486802596
 H          0.8184106150       -0.1884956056        1.2879324908
 N          2.7062989685        1.5309376984        1.8079573043
 S          1.4055444512        2.4437127731        1.3038068507
 O          1.7652050109        3.7997619110        1.6691236311
 O          0.1832095119        1.9513551627        1.8903239734
 C          1.3236507206        2.3287887741       -0.4742793547
 C          0.0803563446        2.4222469399       -1.0626735825
 C         -0.0161555744        2.4023346430       -2.4436517886
 C          1.1303240714        2.2839786800       -3.2110071122
 C          2.3732128639        2.1937815137       -2.6062343384
 C          2.4764140924        2.2237055606       -1.2254267249
 H          3.4359057190        2.1536414819       -0.7398201486
 H          3.2634306647        2.0930202980       -3.2060328104
 H          1.0529471485        2.2533141339       -4.2863704811
 H         -0.9845676962        2.4624425263       -2.9142706988
 H         -0.7864190151        2.4907358855       -0.4241808423
 H          3.5406616316        2.0920753404        1.8980420868
 H          5.0404902139        0.3989875167        1.1852711870
 H          5.3172240791       -1.8710975271        0.2581002018
 H          3.3591107870       -3.2810785911       -0.1872716844
 H          0.4312784082       -3.1329180548        1.2407771672
 C          0.9226856350       -3.7734748299       -0.7418585371
 C          1.4081646235       -5.1270039702       -0.3188869144
 C         -0.0153997491       -4.9420354664       -0.7475977546
 H         -0.3290741591       -5.3485484247       -1.6973047980
 H         -0.7855235605       -4.9594318421        0.0100445347
 H          2.0728207242       -5.6654911380       -0.9776571731
 H          1.6009870649       -5.2852020750        0.7315637098
 H          1.2471785050       -3.3876425989       -1.7018092362
