  62
        -98.93906379
 C          2.3590572290        0.6402788075        0.1200900678
 C          2.6448924822       -0.7511345399        0.1319986085
 C          3.9266314082       -1.1649046972       -0.4516051962
 C          4.7410944190       -0.2288509650       -0.9713362885
 C          6.0990269811       -0.4958161224       -1.5516299998
 C          7.1939905720       -0.3744600691       -0.4825233175
 C          6.8932640246       -1.1505323009        0.7996721793
 H          7.7461857020       -1.0172733569        1.4686555439
 H          6.0262780525       -0.7038291402        1.2918385382
 C          6.6380533725       -2.6495243569        0.5889954105
 H          7.0210871077       -2.9578026882       -0.3844132660
 H          7.1903241097       -3.2089177252        1.3469813254
 C          5.1709456025       -3.0662240812        0.7101203294
 H          5.1301243152       -4.1574695669        0.7637745146
 H          4.7547704540       -2.6780300396        1.6433380006
 C          4.2559216462       -2.6312380577       -0.4417725922
 H          3.3009511083       -3.1516536700       -0.3229477853
 H          4.6951167575       -2.9332430274       -1.3948324916
 H          8.1345077784       -0.7259270913       -0.9104959044
 H          7.3103953465        0.6805277620       -0.2243834146
 H          6.1110442889       -1.4927108984       -1.9878860766
 H          6.2872436015        0.2379362118       -2.3370296795
 O          4.4302031531        1.0898009424       -0.9819730576
 C          3.2439937789        1.5632001436       -0.4386821788
 O          3.1241314489        2.8009149613       -0.5271981329
 O          1.8609307044       -1.6109925168        0.6186714309
 C          1.0403907203        1.0642526122        0.7422855901
 C         -0.0369834368        1.2896479497       -0.2923045885
 C          0.0788449674        2.2778053057       -1.2648088708
 C         -0.9438923202        2.4884557849       -2.1711881378
 C         -2.1059446066        1.7392627669       -2.1130502535
 C         -2.2284424249        0.7458950186       -1.1489591662
 C         -1.1911455147        0.5212665740       -0.2545268251
 H         -1.2968851903       -0.2627751766        0.4814713481
 N         -3.3872057321       -0.0425733034       -1.0705140553
 S         -3.9247141253       -0.5101261719        0.4611516068
 O         -3.7849310613        0.5884282086        1.3899560650
 O         -3.2734891575       -1.7426498126        0.8277957181
 C         -5.6485811129       -0.8167545246        0.1229765446
 C         -6.5715157933        0.1833921209        0.3647337492
 C         -7.9060220341       -0.0512536105        0.0729919646
 C         -8.2923533620       -1.2739261417       -0.4553064687
 C         -7.3545480449       -2.2681639140       -0.6920748827
 C         -6.0186028217       -2.0406036837       -0.4019881242
 H         -5.2558268913       -2.7853216406       -0.5598528607
 H         -7.6590560612       -3.2184727330       -1.0999932767
 H         -9.3314608318       -1.4543902054       -0.6809697208
 H         -8.6376901997        0.7183320073        0.2591288885
 H         -6.2262673011        1.1141490137        0.7854489938
 H         -4.1417723674        0.3071002461       -1.6450907331
 H         -2.9093471297        1.9171519425       -2.8118123934
 H         -0.8411814804        3.2566250661       -2.9228719574
 H          0.9777803522        2.8733483683       -1.3030577977
 H          0.7249362904        0.2084919337        1.3558851506
 C          1.1479962431        2.2810521300        1.6428372374
 C          0.0261738321        2.5701486801        2.5934125376
 C          1.3481458169        2.0940885535        3.1150687321
 H          1.9776051115        2.7951958262        3.6423439130
 H          1.4139435806        1.0817238852        3.4870935802
 H         -0.2517922612        3.5992358096        2.7621655286
 H         -0.8092836925        1.8844946338        2.6060770239
 H          1.6404088484        3.1222608628        1.1729235099
