  62
        -98.93895062
 C          0.7477234275        1.1520099645        0.7999902123
 C          1.1650979768        0.7163712309       -0.4798732537
 C          2.1928001038       -0.3449080881       -0.5082358962
 C          2.5818432459       -0.9228639748        0.6416980807
 C          3.5953426550       -2.0132670715        0.9208710751
 C          4.5777839495       -2.4574676168       -0.1598199177
 C          5.6331947112       -1.4149337662       -0.5299406309
 H          6.3254888091       -1.3102887506        0.3093957875
 H          6.2018229019       -1.7907176043       -1.3832971848
 C          5.1018846321       -0.0223900969       -0.8613237756
 H          5.9600549082        0.6193834187       -1.0788458982
 H          4.6023838897        0.3977317095        0.0141621526
 C          4.1538368495        0.0489037383       -2.0566489244
 H          3.9706233756        1.1059171932       -2.2686286696
 H          4.6356900961       -0.3875319550       -2.9336586894
 C          2.7884997462       -0.6309131444       -1.8565727933
 H          2.0917271470       -0.2152671604       -2.5900070789
 H          2.8545586953       -1.7000435298       -2.0358470154
 H          4.0433309284       -2.7885997018       -1.0449808935
 H          5.1041013701       -3.3298647141        0.2370066855
 H          4.1594847406       -1.6773687785        1.7971385520
 H          3.0187786465       -2.8851915738        1.2465301741
 O          2.0120411897       -0.5876050845        1.8383037628
 C          1.1243625211        0.4660601108        1.9548899791
 O          0.7408888832        0.6840640821        3.1224533665
 H         -2.0670597424        0.4970924678        0.9569307662
 C         -2.2062588459        1.1946648328        0.1428395993
 C         -1.3232085373        2.2581093253        0.0024297917
 C         -1.5282265091        3.1656021593       -1.0281705650
 C         -2.5827045708        2.9940321474       -1.9070667964
 C         -3.4453519435        1.9209484089       -1.7811745790
 C         -3.2541331184        1.0133439401       -0.7446031314
 N         -4.1208740234       -0.0741780078       -0.5863647298
 S         -3.7660480628       -1.3827597849        0.3662532946
 O         -4.7152007938       -2.3912808275       -0.0575848248
 O         -3.8288384149       -1.0177140911        1.7604330238
 C         -2.1197395308       -1.9388130408       -0.0404686847
 C         -1.3444191237       -2.4506235518        0.9802350330
 C         -0.1025791121       -2.9840240435        0.6803614390
 C          0.3456515443       -2.9887456138       -0.6307741576
 C         -0.4369053847       -2.4565510018       -1.6430451068
 C         -1.6849442529       -1.9314115538       -1.3501895264
 H         -2.3112414443       -1.5173280486       -2.1233895102
 H         -0.0788687836       -2.4484124694       -2.6597587964
 H          1.3096571441       -3.4121672396       -0.8629099636
 H          0.5070318997       -3.3882023081        1.4731886890
 H         -1.7242003701       -2.4157674968        1.9895539157
 H         -4.7355340742       -0.2817874104       -1.3575470326
 H         -4.2593460648        1.7813470438       -2.4756003289
 H         -2.7281327441        3.6999786583       -2.7105673158
 H         -0.8449560919        3.9877704634       -1.1618694780
 C         -0.1801631085        2.3409774858        0.9814186168
 H         -0.5984667747        2.2258704171        1.9953644247
 C          0.5377544344        3.6831377006        0.9528918720
 C          1.9351088792        3.8166439298        1.4787983802
 C          1.6682124040        3.9715272702        0.0132964966
 H          1.7368086001        4.9600569764       -0.4166988139
 H          1.9796574420        3.1828354270       -0.6528725102
 H          2.4275746247        2.9171814061        1.8197510514
 H          2.1851757106        4.6945038395        2.0554567312
 H         -0.1369900004        4.5050738774        1.1722273898
 O          0.7285830602        1.1881613106       -1.5593181477
