  62
        -98.94250532
 C          1.9691916901        1.3689438003        0.3036150904
 C          1.6546562004       -0.0111191598        0.2740459499
 C          2.7793420606       -0.9260946296        0.5162955898
 C          3.9952176804       -0.4350824194        0.8129476701
 C          5.2327317806       -1.2421297492        1.0960795300
 C          5.9897239808       -1.6788163587       -0.1657369400
 C          5.3149441512       -2.7838146386       -0.9797859204
 H          6.0484879013       -3.1387999183       -1.7064326104
 H          5.0748471813       -3.6214532389       -0.3242081907
 C          4.0528332611       -2.3382139487       -1.7319718304
 H          4.0871120113       -2.7150438684       -2.7567502505
 H          4.0315619409       -1.2475612687       -1.7956402501
 C          2.7414507212       -2.8246836692       -1.1144826007
 H          2.6948945314       -3.9146744592       -1.1667843910
 H          1.9147940712       -2.4250950892       -1.7083004607
 C          2.5324305609       -2.3943201196        0.3435407194
 H          1.4915685609       -2.5893537399        0.6123286592
 H          3.1802337510       -2.9713153097        1.0028521693
 H          6.9713312809       -2.0387024086        0.1509740800
 H          6.1465260607       -0.8030072685       -0.7999508398
 H          4.9718956507       -2.1199263695        1.6877690197
 H          5.8913726204       -0.6046706893        1.6898553803
 O          4.2382304701        0.8992629506        0.9122986505
 C          3.2454421800        1.8273189905        0.6418741006
 O          3.6131639497        3.0140189205        0.7508813810
 O          0.5046676005       -0.4717005200        0.0609128697
 C          0.9232817699        2.4292764801        0.0084956005
 C         -0.3685254001        2.1083245597        0.7197613503
 C         -0.3652116602        2.0664276793        2.1123494703
 C         -1.5213422903        1.7920965188        2.8157465601
 C         -2.7085553701        1.5563831288        2.1443066899
 C         -2.7242758900        1.5979551492        0.7558996899
 C         -1.5602194800        1.8764029196        0.0508997401
 H         -1.5987083898        1.8714254699       -1.0252977199
 N         -3.9250633899        1.3958436291        0.0479650297
 S         -4.0418382995        0.1747322794       -1.0921339507
 O         -3.0423877294        0.3535471099       -2.1114112905
 O         -5.4196112994        0.2213562492       -1.5343058408
 C         -3.7748249993       -1.3299141808       -0.1707619310
 C         -2.4954256192       -1.6717247906        0.2188254390
 C         -2.3220547391       -2.8089180308        0.9937757287
 C         -3.4150701589       -3.5764552412        1.3639140684
 C         -4.6932298890       -3.2162749613        0.9638255583
 C         -4.8770389791       -2.0800590112        0.1934499486
 H         -5.8508553292       -1.7614864013       -0.1421820014
 H         -5.5433517689       -3.8137865716        1.2515988481
 H         -3.2691085988       -4.4588985613        1.9670126182
 H         -1.3254963490       -3.0802868707        1.3044025388
 H         -1.6536298593       -1.0645463504       -0.0738448107
 H         -4.7416125499        1.3623367488        0.6429285996
 H         -3.6154054002        1.3435116084        2.6902647097
 H         -1.4998249304        1.7592523585        3.8946047801
 H          0.5644544397        2.2480056093        2.6353191605
 H          1.3243199097        3.3574796301        0.4491487008
 C          0.7316192000        2.7013321005       -1.4764817294
 C          1.8644346602        2.5510933410       -2.4465873193
 C          0.7052336304        1.6039647008       -2.4953345597
 H          0.0031015705        1.6788902509       -3.3131664798
 H          0.8488088406        0.5935023207       -2.1470695900
 H          1.9669341401        3.2842108413       -3.2325064891
 H          2.8076795302        2.1883092511       -2.0638961193
 H          0.0636499499        3.5399165504       -1.6504862892
