  62
        -98.94086283
 C          0.0511473180        1.8339889378       -0.1168637394
 C          1.1436655059        1.9508761844        0.7691964083
 C          2.3594052922        1.1907641234        0.4258939761
 C          2.3592645653        0.4326960051       -0.6853360628
 C          3.4811807982       -0.4069043314       -1.2385011630
 C          4.1516778723       -1.3583003330       -0.2346412907
 C          5.5953898094       -0.9695704058        0.0859296905
 H          6.1235096047       -1.8527706937        0.4522138239
 H          6.0848058871       -0.6556385748       -0.8382573890
 C          5.7483660512        0.1275065839        1.1380791626
 H          6.8053391798        0.4017137416        1.1771037146
 H          5.4815698708       -0.2751627072        2.1179921494
 C          4.9238973535        1.3957218787        0.9012070678
 H          5.4130378904        2.2104309978        1.4397369524
 H          4.9258105811        1.6670483097       -0.1532213063
 C          3.4819574967        1.3057038172        1.4218082605
 H          3.3917970216        0.4747754891        2.1301710246
 H          3.2459418509        2.2077466842        1.9960962457
 H          4.1576350029       -2.3610408920       -0.6650928469
 H          3.5610065521       -1.4045158603        0.6806790756
 H          3.0373730566       -0.9731260282       -2.0586224368
 H          4.2304876879        0.2536400982       -1.6794745397
 O          1.2790812597        0.3473822844       -1.5123845565
 C          0.0972283942        1.0148878878       -1.2440403013
 O         -0.8136818937        0.8046535947       -2.0654193628
 H         -1.0904786600        0.0806465950        1.2250098343
 C         -2.0966188704        0.3171623600        0.9120658936
 C         -2.3730476551        1.5602273208        0.3589294245
 C         -3.6824929253        1.8436423194       -0.0110629483
 C         -4.6788342839        0.8978446969        0.1576258280
 C         -4.3924815751       -0.3504896335        0.6793012388
 C         -3.0855578517       -0.6414870805        1.0559788300
 N         -2.7502842671       -1.8990858007        1.5806390589
 S         -1.2495322694       -2.5780516437        1.3511328679
 O         -1.4362641166       -3.9662594695        1.7235514841
 O         -0.2462483025       -1.8692640493        2.1090813877
 C         -0.8450032006       -2.5215185925       -0.3874996709
 C          0.4708105848       -2.7871907098       -0.7106813997
 C          0.8372726125       -2.8576275139       -2.0436551928
 C         -0.1113644630       -2.6449306456       -3.0308220417
 C         -1.4254908015       -2.3721915803       -2.6913366648
 C         -1.8034604249       -2.3220103238       -1.3588333721
 H         -2.8238949454       -2.1084303495       -1.0864174567
 H         -2.1607729391       -2.1925285863       -3.4586906159
 H          0.1769044748       -2.6851300943       -4.0694615757
 H          1.8597061480       -3.0777425391       -2.3071232016
 H          1.1813545837       -2.9253263435        0.0892909600
 H         -3.4838349182       -2.5919346864        1.5611405622
 H         -5.1664986897       -1.0937568574        0.7949273236
 H         -5.6915909460        1.1312905921       -0.1333249724
 H         -3.9217984371        2.8052959667       -0.4344343840
 C         -1.2449926954        2.5511513743        0.2046879331
 H         -1.0795140659        3.0362237471        1.1790725401
 C         -1.5330506080        3.6205631191       -0.8300980868
 C         -2.2172109029        4.8955707045       -0.4388706149
 C         -0.7580995674        4.9020391552       -0.7786296711
 H         -0.4434132181        5.3528745284       -1.7077182223
 H         -0.0448412610        5.0153332389        0.0249250726
 H         -2.9054062157        5.3472491596       -1.1374555853
 H         -2.4934213432        5.0187172192        0.5975754343
 H         -1.7445120089        3.2022956259       -1.8076854996
 O          1.1079888728        2.6658635536        1.8095461900
