  62
        -98.94070331
 C          1.1837617110        1.2645325968       -0.1959477683
 C          2.1847245638        1.0733201261        0.7887166057
 C          3.0437063167       -0.1187598894        0.6607881265
 C          2.8258072215       -0.9604210440       -0.3663842604
 C          3.5992985546       -2.1985052081       -0.7354847432
 C          4.9481839418       -1.8751394207       -1.3991470955
 C          5.7443870948       -0.7581908050       -0.7293569922
 H          6.6177218871       -0.5526500081       -1.3541190499
 H          5.1407908461        0.1510501446       -0.7094372147
 C          6.2423761677       -1.0678965823        0.6804471285
 H          6.8618813097       -0.2249883116        0.9976473010
 H          6.8808141233       -1.9537465466        0.6485158313
 C          5.1602119470       -1.2866630060        1.7399042620
 H          5.6511140799       -1.2522274885        2.7169830354
 H          4.7204186334       -2.2764047646        1.6520156473
 C          4.0677581267       -0.2220404561        1.7650407669
 H          3.4922684071       -0.3355048780        2.6916946650
 H          4.5340871105        0.7671214509        1.8372627343
 H          5.5476056000       -2.7867513809       -1.4251371594
 H          4.7528645675       -1.5705185544       -2.4301995515
 H          3.7428468683       -2.8270889099        0.1384636989
 H          2.9876597607       -2.7514406214       -1.4514937293
 O          1.8393632906       -0.7472036108       -1.2803424232
 C          0.9936464772        0.3431230321       -1.2253252038
 O          0.1468171271        0.3638337329       -2.1407201196
 O          2.3689861249        1.8784359764        1.7407040842
 C          0.3090847652        2.5013769585       -0.0623277272
 C         -1.0342303715        2.0996968614        0.4941739984
 C         -1.3222183436        2.2766809018        1.8431125398
 C         -2.5278242751        1.8488182589        2.3713264827
 C         -3.4659282559        1.2234192358        1.5685829240
 C         -3.1799688184        1.0322592039        0.2235543570
 C         -1.9820165872        1.4822205481       -0.3095224521
 H         -1.7629389531        1.3060162712       -1.3512824814
 N         -4.1038740940        0.3390006859       -0.5940955237
 S         -4.2858351534       -1.2799261776       -0.1979043408
 O         -4.9251690888       -1.8952231492       -1.3385457294
 O         -4.9956038557       -1.3703213768        1.0532029519
 C         -2.6277980921       -1.9080873881        0.0013720470
 C         -1.9688179605       -2.4105341493       -1.1020356698
 C         -0.6676507716       -2.8623240684       -0.9579571314
 C         -0.0459580260       -2.7887991582        0.2783562963
 C         -0.7157062653       -2.2672191552        1.3738706065
 C         -2.0211367868       -1.8244593907        1.2385534960
 H         -2.5777551515       -1.4244850714        2.0701233504
 H         -0.2237257137       -2.2017611264        2.3313202298
 H          0.9691931803       -3.1362837036        0.3887983007
 H         -0.1391173870       -3.2562564227       -1.8110935379
 H         -2.4852614897       -2.4505899631       -2.0477997719
 H         -3.8671123836        0.4034868898       -1.5752829463
 H         -4.3991592614        0.8578079603        1.9655185012
 H         -2.7374095287        1.9976460595        3.4197376558
 H         -0.5821384602        2.7383616530        2.4807185381
 H          0.8103421068        3.1280238266        0.6870808094
 C          0.1946657415        3.2893228143       -1.3513750436
 C         -0.2882964008        4.7066740087       -1.2949719554
 C          1.1480099140        4.4159737408       -1.6083827826
 H          1.4994524916        4.5728368429       -2.6172205400
 H          1.8885519519        4.6282989530       -0.8511345412
 H         -0.9259738203        5.0662927975       -2.0879031630
 H         -0.5223145935        5.1152567790       -0.3235699908
 H         -0.0990007502        2.6906728874       -2.2037038321
