  62
        -98.94301671
 C         -2.3382900144       -0.8977601223        0.4287560269
 C         -2.5311250168        0.1718407524       -0.4790008701
 C         -3.5367327807        1.1696444070       -0.0884544297
 C         -4.1788571931        1.0591368320        1.0877417873
 C         -5.2061854566        2.0128807531        1.6338342303
 C         -6.6289237318        1.7607893081        1.1159741627
 C         -6.8705703522        2.1563571947       -0.3412875184
 H         -7.9497087194        2.1312215040       -0.5052118573
 H         -6.5417796680        3.1843310303       -0.4971063517
 C         -6.1948280364        1.2364230399       -1.3677359952
 H         -5.9138834027        0.2969282105       -0.8861890605
 H         -6.9058266307        0.9894195388       -2.1594110095
 C         -4.9595870671        1.8359079756       -2.0398545175
 H         -4.5413289446        1.0874823735       -2.7178851917
 H         -5.2512105055        2.7037102121       -2.6357656489
 C         -3.8543311932        2.2622527107       -1.0648593355
 H         -4.1472221396        3.1701357232       -0.5381510620
 H         -2.9491885731        2.4684738222       -1.6414331523
 H         -6.8674274030        0.7032436852        1.2506523559
 H         -7.3111247862        2.3378103673        1.7444741144
 H         -5.2062747158        1.8808188697        2.7179114956
 H         -4.9118739251        3.0382999809        1.4086081186
 O         -3.9409379282        0.0373845628        1.9511496830
 C         -3.0450325974       -0.9678056155        1.6351554377
 O         -2.9621525680       -1.8631386813        2.4993567916
 O         -1.9084282346        0.3166811276       -1.5662613474
 C         -1.3799435945       -2.0522980773        0.1770685674
 C          0.0503879866       -1.6749501310        0.4829109446
 C          0.7654642836       -2.3403747359        1.4717304110
 C          2.0828564869       -2.0068554227        1.7331158936
 C          2.7120223175       -1.0030129422        1.0187275625
 C          2.0057074575       -0.3308776328        0.0298859574
 C          0.6870437691       -0.6727206117       -0.2348787223
 H          0.1402622582       -0.1447069425       -1.0022901473
 N          2.6234332661        0.7089872460       -0.6860826135
 S          4.1310520808        0.4282012487       -1.3654184995
 O          4.2381306753        1.3707449087       -2.4576192152
 O          4.3127770072       -0.9655481686       -1.6999448874
 C          5.2718689557        0.8999283032       -0.0819294302
 C          5.1530392234        2.1637657268        0.4623124101
 C          6.0407302880        2.5516355190        1.4530654252
 C          7.0285366556        1.6755753367        1.8781933625
 C          7.1366523817        0.4113213300        1.3195864284
 C          6.2509999734        0.0167318405        0.3287220478
 H          6.2930496608       -0.9580452138       -0.1305767366
 H          7.9056166143       -0.2677862436        1.6511836177
 H          7.7181128668        1.9804873467        2.6494785870
 H          5.9595848813        3.5338806786        1.8901217555
 H          4.3734817974        2.8144645611        0.1023305652
 H          2.0077148602        1.1559728726       -1.3504580021
 H          3.7376138085       -0.7387091080        1.2188391795
 H          2.6257792870       -2.5324278330        2.5038150913
 H          0.2775155613       -3.1166471615        2.0431614892
 H         -1.6749599674       -2.8375947570        0.8857954976
 C         -1.4928422395       -2.6131606760       -1.2283958094
 C         -1.0373542821       -4.0156452090       -1.4900479351
 C         -2.4992244569       -3.6852052712       -1.5123997724
 H         -3.0132152806       -3.6711675406       -2.4618349349
 H         -3.1113941493       -4.0259653146       -0.6897852655
 H         -0.5422877059       -4.2298580675       -2.4249122935
 H         -0.6591077609       -4.5831680639       -0.6532600886
 H         -1.3215300088       -1.8761107968       -2.0019185926
