  62
        -98.94721833
 C          1.0036461201        1.5108492491       -0.8819748910
 C          2.3261992403        1.4397719889       -0.3725173315
 C          3.0699831297        0.2087585084       -0.6517940309
 C          2.4891303390       -0.7689021119       -1.3692886000
 C          3.0939045084       -2.1054749523       -1.7017812393
 C          2.9310179785       -3.1367065515       -0.5760826085
 C          3.8482540791       -2.9276339109        0.6296828910
 H          3.8129040090       -3.8450644705        1.2208654917
 H          4.8763884490       -2.7970759816        0.2889420904
 C          3.4447979799       -1.7508866801        1.5295906203
 H          3.4905905403       -2.0635963094        2.5759973505
 H          2.4043344799       -1.4797970299        1.3302308406
 C          4.3289401203       -0.5106179106        1.3920796090
 H          5.3377910104       -0.7408059207        1.7436022687
 H          3.9173604309        0.2721981201        2.0345576886
 C          4.4254552999        0.0493635584       -0.0326139514
 H          4.8852712603        1.0395608782        0.0208286377
 H          5.0518599594       -0.5952619023       -0.6489954312
 H          3.1369911179       -4.1230730918       -0.9991878378
 H          1.8917048086       -3.1257102508       -0.2359041680
 H          4.1511443583       -1.9875261129       -1.9411575398
 H          2.5744399678       -2.4740671528       -2.5890059888
 O          1.2468634188       -0.6407912818       -1.8967188595
 C          0.4555520494        0.4698098987       -1.6318332300
 O         -0.6815045009        0.3914825588       -2.1379697294
 O          2.8591773709        2.3690440692        0.2933570476
 C          0.1815388708        2.7112170897       -0.4407504215
 C         -0.4940518988        2.3598615109        0.8655901691
 C         -0.3849114980        3.1698571617        1.9890346484
 C         -0.9379176676        2.7744575327        3.1950033090
 C         -1.5714105580        1.5501701431        3.3135650301
 C         -1.6877060188        0.7359022123        2.1928248608
 C         -1.1914157092        1.1656664812        0.9732020502
 H         -1.3055230598        0.5321709006        0.1089896607
 N         -2.2866247293       -0.5310116274        2.2565975319
 S         -1.6205500402       -1.7748368883        1.3446650726
 O         -2.0177164803       -2.9810679877        2.0461437236
 O         -0.1974636002       -1.6061886590        1.1614862218
 C         -2.4865006808       -1.7319718891       -0.2078996371
 C         -1.8596238015       -2.2393354602       -1.3269491070
 C         -2.5493322921       -2.2659588808       -2.5280608167
 C         -3.8474357819       -1.7865520303       -2.5879669065
 C         -4.4642247912       -1.2815687693       -1.4536814866
 C         -3.7815923707       -1.2559880987       -0.2487354969
 H         -4.2275490501       -0.8636022679        0.6501733130
 H         -5.4728013911       -0.9035337989       -1.5055559364
 H         -4.3787895223       -1.8012974108       -3.5266854362
 H         -2.0638691526       -2.6477752816       -3.4118070066
 H         -0.8401161016       -2.5829080105       -1.2460893172
 H         -2.5423474190       -0.8421312267        3.1825742223
 H         -1.9618692677        1.2209177339        4.2644598305
 H         -0.8472341770        3.4122542933        4.0611706085
 H          0.1589703923        4.1002724414        1.9213989475
 H          0.9073004011        3.5108746296       -0.2378238724
 C         -0.8221694395        3.2160021893       -1.4556999514
 C         -1.2757485089        4.6423584096       -1.3815085722
 C         -0.3826587096        4.1966877184       -2.4994260123
 H         -0.7965908201        4.1081109578       -3.4922695021
 H          0.6504156505        4.5124353380       -2.4843946730
 H         -2.3074672089        4.8649064598       -1.6053652519
 H         -0.8478620484        5.2662728899       -0.6115986029
 H         -1.5476905199        2.4693901994       -1.7498835405
