  62
        -98.94898723
 C         -1.6747807099       -1.2606595917       -0.1917108620
 C         -2.6008958912       -0.5342278221        0.5927142768
 C         -3.0047754115        0.7720253275        0.0600466759
 C         -2.4875185604        1.2070041475       -1.1030454637
 C         -2.8015611905        2.5131956571       -1.7802530844
 C         -2.0017118218        3.7041217677       -1.2346943539
 C         -2.4458928937        4.2133639579        0.1370806754
 H         -1.9706925944        5.1851514282        0.2859260156
 H         -3.5247182438        4.3748134372        0.1343451742
 C         -2.0643188144        3.3013571785        1.3113580561
 H         -1.2589574237        2.6241259689        1.0157910872
 H         -1.6649936157        3.9087244290        2.1276555664
 C         -3.2197442145        2.4828648280        1.8885970251
 H         -3.9473954655        3.1536774677        2.3523391541
 H         -2.8142049750        1.8341482785        2.6696495858
 C         -3.9540991429        1.6018776472        0.8701979246
 H         -4.5703026025        2.2196235166        0.2166323537
 H         -4.6047519631        0.9170510770        1.4205406241
 H         -2.1050362916        4.5219667074       -1.9517353343
 H         -0.9443548617        3.4308049584       -1.1909473827
 H         -2.5526422893        2.3840985769       -2.8357076741
 H         -3.8685305907        2.7226709464       -1.6982382257
 O         -1.6027081392        0.4755056178       -1.8311383025
 C         -1.1634716789       -0.7675771218       -1.3908438916
 O         -0.3403798177       -1.3166850615       -2.1458707605
 O         -3.0731316322       -0.9609098620        1.6816540464
 C         -1.1787948196       -2.6075953813        0.2986267890
 C          0.3215220802       -2.5764767303        0.4616179906
 C          1.1586340913       -3.5926006399        0.0190348919
 C          2.5277524110       -3.5019859690        0.2009973934
 C          3.0885831297       -2.4022939785        0.8230456636
 C          2.2589155585       -1.3856842388        1.2831503624
 C          0.8884603688       -1.4831904997        1.1063078709
 H          0.2542615879       -0.6869762700        1.4688918300
 N          2.7947769471       -0.2651954983        1.9470549926
 S          2.3780562167        1.2702759113        1.4335632917
 O          3.3043024654        2.1429575921        2.1229249124
 O          0.9783933363        1.5137254705        1.6648154301
 C          2.7322870186        1.2777327610       -0.3116506979
 C          1.6911059397        1.1804918100       -1.2088709590
 C          1.9712606612        1.1205630998       -2.5640739987
 C          3.2880988417        1.1585297305       -2.9943304073
 C          4.3266387406        1.2653739414       -2.0805159362
 C          4.0500337991        1.3216680516       -0.7246555165
 H          4.8276023182        1.4160148424        0.0161412543
 H          5.3486975409        1.2996326019       -2.4220461350
 H          3.5043990629        1.1057425803       -4.0496693370
 H          1.1568809221        1.0235602790       -3.2640765596
 H          0.6808984893        1.1469051195       -0.8339111101
 H          3.7932986670       -0.3179870476        2.0926926438
 H          4.1569070195       -2.3296051678        0.9592920848
 H          3.1670289619       -4.2959770487       -0.1535513257
 H          0.7396186324       -4.4547632503       -0.4728945583
 H         -1.6281864507       -2.7411037012        1.2944857985
 C         -1.6693889780       -3.7159111019       -0.6097881012
 C         -1.9243833877       -5.0874231518       -0.0619424310
 C         -3.0749774678       -4.2099100827       -0.4505724726
 H         -3.6385456367       -4.4566687533       -1.3377928331
 H         -3.6698934890       -3.7645065028        0.3336214666
 H         -1.7013930265       -5.9414003719       -0.6835596105
 H         -1.7435571288       -5.2469908414        0.9903228892
 H         -1.2818222369       -3.6278948919       -1.6184937208
