  62
        -98.93916473
 C          2.3529959335        1.2727525485       -0.0161225233
 C          3.1345717898        0.5436224171        0.9067313339
 C          3.8720057721       -0.6236948743        0.3848265135
 C          3.7483360047       -0.9347370217       -0.9191654748
 C          4.3565995525       -2.0965654771       -1.6584519936
 C          3.6313579960       -3.4218792707       -1.3719241264
 C          3.2809848516       -3.6604803483        0.0947962363
 H          2.6588160304       -2.8371307446        0.4521076208
 H          2.6726853453       -4.5676585361        0.1472337789
 C          4.4748664708       -3.8414053062        1.0296188384
 H          5.0638145035       -4.6976670666        0.6936619903
 H          4.0774304778       -4.0798780026        2.0195689784
 C          5.4065684064       -2.6356887933        1.1682557759
 H          6.0572136877       -2.5431209442        0.3030392966
 H          6.0567907292       -2.8253888012        2.0272236567
 C          4.7016144218       -1.3109541136        1.4430438771
 H          4.0426314446       -1.4298190590        2.3108299943
 H          5.4535558610       -0.5747745336        1.7520976906
 H          4.2512025663       -4.2417419312       -1.7384489300
 H          2.6969821161       -3.4247738519       -1.9394004872
 H          5.4146457962       -2.1744213420       -1.4269508287
 H          4.2632544125       -1.8739070115       -2.7236100509
 O          2.9666306998       -0.2108314146       -1.7711834449
 C          2.2495328853        0.8956862268       -1.3546653792
 O          1.5799754257        1.4452505914       -2.2494006806
 O          3.2080708932        0.8430981540        2.1305250984
 C          1.5597262588        2.4722701601        0.4704482294
 C          0.0867712633        2.2185256977        0.2614526924
 C         -0.7694734778        3.1132194398       -0.3654276014
 C         -2.1041422846        2.7932649478       -0.5488972829
 C         -2.6144552281        1.5865500736       -0.1078212758
 C         -1.7682667825        0.6871172967        0.5281586713
 C         -0.4341946852        1.0114563562        0.7127213650
 H          0.2254300686        0.3062639228        1.2047098417
 N         -2.2789807892       -0.5400242154        0.9924452212
 S         -3.0953243070       -1.5061470032       -0.1156137166
 O         -2.9633028252       -2.8544450222        0.3938005377
 O         -2.6312119168       -1.2806349172       -1.4650444887
 C         -4.7912454268       -0.9891066123        0.0469078496
 C         -5.4921562339       -0.5679977057       -1.0659755271
 C         -6.8138188523       -0.1767442845       -0.9165324391
 C         -7.4071779941       -0.2137836299        0.3359758730
 C         -6.6895644599       -0.6412104978        1.4434219579
 C         -5.3688088705       -1.0351944091        1.3008292870
 H         -4.7772360080       -1.3772406304        2.1334300240
 H         -7.1543417715       -0.6683447912        2.4157724371
 H         -8.4351414514        0.0921583268        0.4496465127
 H         -7.3727874665        0.1556457169       -1.7764687952
 H         -4.9859514854       -0.5495208873       -2.0181285730
 H         -1.5962736565       -1.0922085395        1.4922092999
 H         -3.6508608309        1.3312773583       -0.2569976405
 H         -2.7562138479        3.4947554265       -1.0464504475
 H         -0.3901124537        4.0559141002       -0.7234553770
 H          1.7481036418        2.5277603389        1.5530779394
 C          2.0604235492        3.7447658882       -0.1780907554
 C          1.9074274781        5.0593677466        0.5252616272
 C          3.2608524195        4.4285303462        0.4021890950
 H          3.9789108896        4.8694030321       -0.2728025160
 H          3.7042651918        3.9880590921        1.2833561648
 H          1.6980207763        5.9385016631       -0.0650645283
 H          1.4329876646        5.0544880527        1.4947855897
 H          1.9697156647        3.7244800058       -1.2582985667
