  62
        -98.93873625
 C         -2.5317303055       -1.3429782774        0.1391210090
 C         -2.6057360060       -0.3542268166       -0.8689722023
 C         -3.4905510385        0.7961274991       -0.6027864073
 C         -4.1691671635        0.8649256105        0.5569010177
 C         -5.1562941920        1.8886410539        1.0772051959
 C         -5.2615268854        3.2705211744        0.4369000710
 C         -4.0240651750        4.1520836024        0.6034741460
 H         -3.9350770354        4.4331010191        1.6558146664
 H         -4.1768447459        5.0669147560        0.0267907498
 C         -2.6987783966        3.5191590444        0.1851895041
 H         -2.4762984630        2.6660124706        0.8302082840
 H         -1.9064172756        4.2546465550        0.3511654323
 C         -2.6156817531        3.0723344610       -1.2733313224
 H         -1.5758061586        2.7922278071       -1.4683337898
 H         -2.8636742434        3.9093575131       -1.9291569294
 C         -3.5016595596        1.8718249788       -1.6503663375
 H         -3.0914610661        1.4233159828       -2.5597517736
 H         -4.5192864136        2.1845545867       -1.8703176208
 H         -6.0949028749        3.7777831761        0.9304638283
 H         -5.5251327953        3.1814745213       -0.6128330669
 H         -6.1396519180        1.4084038746        1.0243518568
 H         -4.9267048273        2.0045504647        2.1410988467
 O         -4.0779118567       -0.1210223593        1.4958818632
 C         -3.2614548567       -1.2214656023        1.3249744299
 O         -3.2749630440       -2.0186118735        2.2837827809
 H          0.0559369386       -1.1042628367       -1.4796104269
 C          0.5149818784       -1.4130103343       -0.5524786317
 C         -0.2125690321       -2.1830195884        0.3437287699
 C          0.3814776005       -2.5361670167        1.5501006924
 C          1.6700762239       -2.1281479094        1.8470046643
 C          2.3887596248       -1.3542051104        0.9531077173
 C          1.7989768564       -0.9862796648       -0.2487157547
 N          2.5109319859       -0.1773778628       -1.1562628624
 S          3.0865671382        1.2867522947       -0.5621354678
 O          2.2856450751        1.7639767436        0.5424115880
 O          3.1830242699        2.1586973272       -1.7127003969
 C          4.7294080105        0.8881920836       -0.0016246888
 C          5.6071474075        0.3307503442       -0.9109173943
 C          6.8904843686        0.0147261617       -0.4948645314
 C          7.2731850426        0.2624520797        0.8151888685
 C          6.3814769070        0.8260519183        1.7148851865
 C          5.0956234442        1.1437358734        1.3051462692
 H          4.3659380148        1.5774566992        1.9704632712
 H          6.6807105525        1.0183416546        2.7327337722
 H          8.2723352649        0.0147295146        1.1371078591
 H          7.5868029865       -0.4234052380       -1.1916275348
 H          5.2700580532        0.1583255242       -1.9193335574
 H          2.0047865700       -0.0217805789       -2.0174328986
 H          3.3886403321       -1.0237795835        1.1832547706
 H          2.1180279451       -2.4109016615        2.7874759605
 H         -0.1847538708       -3.1164019270        2.2645291671
 C         -1.6401688457       -2.5735166723        0.0432965070
 H         -1.9795084351       -3.2446287729        0.8433023660
 C         -1.7696753461       -3.3023958241       -1.2791112782
 C         -1.3484315567       -4.7377291342       -1.3588439662
 C         -2.8020495050       -4.3783828133       -1.4204668079
 H         -3.3202018933       -4.4734670585       -2.3628879922
 H         -3.4190353440       -4.5946661551       -0.5602531450
 H         -0.9797854251       -5.2005199750       -0.4559359121
 H         -0.8657051392       -5.0833010490       -2.2599567063
 H         -1.5908900496       -2.6744285108       -2.1414351227
 O         -1.9782784974       -0.4041196004       -1.9617644430
