  62
        -98.93584554
 C          2.3865140256        0.7032000765        0.2261133688
 C          2.5396735910       -0.7073598016        0.2288844463
 C          3.7843957225       -1.2347262183       -0.3443547043
 C          4.6881515506       -0.3747587492       -0.8478417893
 C          6.0211046053       -0.7634518919       -1.4175796494
 C          7.1114969196       -0.7533922223       -0.3371650171
 C          6.7259541388       -1.5075153572        0.9353604822
 H          7.5801433473       -1.4592668060        1.6141466023
 H          5.8986319443       -0.9860254718        1.4222971425
 C          6.3347477212       -2.9745966599        0.7093634466
 H          6.8241089711       -3.5886472408        1.4682711510
 H          6.6981220894       -3.3097896138       -0.2626659262
 C          4.8339901544       -3.2541108569        0.8117189121
 H          4.4453169505       -2.8379091715        1.7447619777
 H          4.6913864189       -4.3373232058        0.8534393969
 C          3.9752842960       -2.7254133037       -0.3443887268
 H          4.3936507494       -3.0598254560       -1.2961078106
 H          2.9743933221       -3.1548440581       -0.2392751953
 H          8.0192925382       -1.1883455580       -0.7589611803
 H          7.3235042175        0.2841139939       -0.0691549551
 H          5.9440805438       -1.7536026015       -1.8624624435
 H          6.2852779721       -0.0443839123       -2.1946784132
 O          4.5032697457        0.9675755316       -0.8500634235
 C          3.3577144541        1.5478995762       -0.3147153426
 O          3.3496841953        2.7888886878       -0.3932257191
 H         -1.4625380991        0.4262037996        0.9726371187
 C         -1.2510994247        0.9404924324        0.0472934380
 C          0.0276100894        1.4170203216       -0.2043025565
 C          0.2800686343        2.0554541137       -1.4145451982
 C         -0.7280562277        2.2050583419       -2.3491066827
 C         -2.0005410341        1.7244633733       -2.0968465621
 C         -2.2668003943        1.0928451933       -0.8869383478
 N         -3.5673092069        0.6507363351       -0.5926657122
 S         -3.8015172948       -0.7273126916        0.3532084945
 O         -3.5251596253       -0.3987752946        1.7287136657
 O         -3.0763800379       -1.8466568227       -0.2047620815
 C         -5.5562998554       -0.9501941735        0.1305051951
 C         -6.0157744319       -1.8810492374       -0.7816548172
 C         -7.3825660237       -2.0217366275       -0.9651704910
 C         -8.2612648531       -1.2314217403       -0.2397143650
 C         -7.7849612775       -0.3019635385        0.6731973827
 C         -6.4199411048       -0.1572887494        0.8625842009
 H         -6.0039896901        0.5442758612        1.5666317543
 H         -8.4713773450        0.3086096288        1.2372955367
 H         -9.3242266558       -1.3426292680       -0.3846298611
 H         -7.7557885493       -2.7457607752       -1.6714203311
 H         -5.2953349107       -2.4789101265       -1.3166745520
 H         -4.1637134836        0.6324595998       -1.4092036407
 H         -2.7844566633        1.8411092207       -2.8296350247
 H         -0.5191986644        2.6992630723       -3.2860543184
 H          1.2705105157        2.4374686205       -1.6103236908
 C          1.1072335754        1.2476099755        0.8350118622
 H          0.7671275920        0.4584267658        1.5260035345
 C          1.3220503740        2.5087663112        1.6617876011
 C          0.8303090593        3.8604699234        1.2498043639
 C          0.1647347947        3.1379636143        2.3798731414
 H          0.3147908957        3.4962146701        3.3871164766
 H         -0.8149017718        2.7191498599        2.2014053142
 H          0.2999076062        3.9460305203        0.3148425665
 H          1.4603595543        4.7081409455        1.4708720272
 H          2.2685083413        2.4848188893        2.1928151366
 O          1.6714862242       -1.4922165594        0.7011121201
