  62
        -98.94702644
 C         -2.2917279448       -0.4882875538       -0.4754572663
 C         -1.4438564372        0.4246406156       -1.1468356556
 C         -1.6977597109        1.8509087657       -0.8949161106
 C         -2.6740066013        2.2127548811       -0.0449559109
 C         -3.0058346897        3.6253346533        0.3381145458
 C         -2.2335830987        4.0662620053        1.5887152253
 C         -0.7311404938        3.7889723795        1.5245212541
 H         -0.2878452834        4.1908799441        2.4388956314
 H         -0.5553832087        2.7100550537        1.5384127738
 C         -0.0224947530        4.3945617906        0.3049818959
 H         -0.6376913975        5.1829505056       -0.1316086460
 H          0.9101256208        4.8547141380        0.6385474721
 C          0.3457684445        3.3717266904       -0.7711804659
 H          0.8445796670        2.5237406107       -0.2951488176
 H          1.0600751629        3.8362251845       -1.4566852748
 C         -0.8244547004        2.8428500546       -1.6111023532
 H         -1.4189607269        3.6801869475       -1.9831544795
 H         -0.4058108912        2.3107743202       -2.4702216878
 H         -2.4001596555        5.1354139877        1.7358557643
 H         -2.6411773929        3.5366255623        2.4531106819
 H         -2.7735114731        4.2855456581       -0.4953603865
 H         -4.0759594262        3.6806102739        0.5465491794
 O         -3.4627519018        1.3116436197        0.5946991851
 C         -3.2830512311       -0.0467599034        0.4062928049
 O         -4.0711885798       -0.7595468601        1.0620606511
 H          0.4060300527       -1.2227284232       -0.2839719018
 C          0.1272697407       -1.9691614836        0.4391360609
 C         -1.1528900867       -2.5040354417        0.4146914418
 C         -1.4886814106       -3.4792424039        1.3455707707
 C         -0.5672151817       -3.8928451562        2.2914027133
 C          0.6883758561       -3.3163327873        2.3471523872
 C          1.0340140613       -2.3382978484        1.4200543076
 N          2.2917840426       -1.7182736542        1.4652168839
 S          2.4437016138       -0.0471777456        1.2999454385
 O          3.3274621392        0.3523438128        2.3787341454
 O          1.1562816714        0.5993243120        1.2634591364
 C          3.3323151971        0.1315202487       -0.2342188433
 C          2.6657335535        0.3083153958       -1.4291942324
 C          3.4076218663        0.4211818439       -2.5960598650
 C          4.7908225523        0.3528577992       -2.5524249367
 C          5.4458390930        0.1731412362       -1.3431715508
 C          4.7120552834        0.0613884272       -0.1744358264
 H          5.1794101193       -0.0638489351        0.7882997999
 H          6.5221389940        0.1209758878       -1.3081555608
 H          5.3597309699        0.4415260339       -3.4646290801
 H          2.8916213151        0.5601652356       -3.5327379556
 H          1.5877521505        0.3580886334       -1.4528864828
 H          2.8772877741       -2.0405846111        2.2225715183
 H          1.3959671584       -3.6129068093        3.1071104267
 H         -0.8374344167       -4.6534453004        3.0084204813
 H         -2.4846389962       -3.8973741493        1.3389552443
 C         -2.1661644194       -2.0013119914       -0.5869934504
 H         -3.1469069798       -2.4033601720       -0.2966212929
 C         -1.8422633298       -2.4962592397       -1.9824504637
 C         -2.2257783120       -3.8934396412       -2.3631510424
 C         -2.9571969800       -2.7270187827       -2.9555188591
 H         -2.7920345593       -2.4830200991       -3.9939873254
 H         -3.9643074173       -2.5304454340       -2.6166471203
 H         -2.7402857284       -4.4913244561       -1.6261025950
 H         -1.5563396486       -4.4555465462       -2.9957845906
 H         -0.9141295243       -2.1032137037       -2.3742162694
 O         -0.5166357451        0.0934337665       -1.9336996282
