  62
        -98.94586254
 C          1.0791474445        1.2774866804       -0.0550141507
 C          1.7636679886        0.5766916792        0.9725859567
 C          2.5840416831       -0.5677075788        0.5563510152
 C          2.6135681219       -0.9113636762       -0.7437059915
 C          3.4236744347       -2.0379898035       -1.3154367837
 C          4.8068066204       -1.5531291781       -1.7718118951
 C          5.5409210092       -0.7114871167       -0.7276949605
 H          4.9957114963        0.2232495171       -0.5776493375
 H          6.5147957475       -0.4506812104       -1.1476447383
 C          5.7372610924       -1.4077461019        0.6263146481
 H          6.7634394610       -1.2393936801        0.9595520913
 H          5.6069850725       -2.4843304286        0.5108100764
 C          4.8187682922       -0.9016284842        1.7401106424
 H          4.8741964497        0.1885026214        1.7927420932
 H          5.1900351705       -1.2944138144        2.6902924797
 C          3.3431806535       -1.3049154075        1.6246161880
 H          2.8565854257       -1.0475193236        2.5702710359
 H          3.2709921999       -2.3848813289        1.4775230044
 H          4.6811036413       -0.9481396972       -2.6729155617
 H          5.4103753351       -2.4251319209       -2.0303774983
 H          3.5301874150       -2.8191605108       -0.5650035030
 H          2.8872103030       -2.4442868893       -2.1750587438
 O          1.9328452351       -0.2319695202       -1.6998145798
 C          1.1628534903        0.8862850285       -1.3926781305
 O          0.6347392099        1.4091996127       -2.3925221851
 H         -1.4463061758        0.9651003734       -1.1568569311
 C         -1.9030516860        1.2780294767       -0.2306454532
 C         -1.1892337736        2.0470533010        0.6774421312
 C         -1.8163629572        2.4487457914        1.8515927252
 C         -3.1275130335        2.0927335295        2.1090162153
 C         -3.8300799556        1.3108854290        1.2102945609
 C         -3.2113015321        0.8989262868        0.0358388166
 N         -3.8942228552        0.0845499005       -0.8867106182
 S         -3.1306106726       -1.3116498339       -1.4097278171
 O         -2.1309552743       -1.0076836785       -2.3990193001
 O         -4.2133185297       -2.1697654261       -1.8434420337
 C         -2.3801631737       -1.9780912681        0.0641668458
 C         -3.1976683098       -2.5918019341        0.9936474433
 C         -2.6406373950       -3.0554902596        2.1737469222
 C         -1.2835467144       -2.8901197509        2.4071840482
 C         -0.4759700782       -2.2750468702        1.4635322775
 C         -1.0278817329       -1.8128873015        0.2793008565
 H         -0.4298090533       -1.3281672747       -0.4766989549
 H          0.5780300026       -2.1362698827        1.6436910158
 H         -0.8481580427       -3.2427871236        3.3286585342
 H         -3.2634148722       -3.5395749884        2.9084735093
 H         -4.2452727436       -2.7094173655        0.7686907129
 H         -4.8481697929       -0.1196729898       -0.6227196949
 H         -4.8495444458        1.0198263345        1.4121400368
 H         -3.6028447562        2.4143519488        3.0227326408
 H         -1.2640378272        3.0358576677        2.5697116605
 C          0.2377011568        2.4577591588        0.3948728436
 H          0.6806020111        2.7809347393        1.3474579343
 C          0.2498920715        3.6362928581       -0.5591636577
 C         -0.0013094558        5.0132803253       -0.0248297962
 C          1.3703892301        4.6282075163       -0.4899643748
 H          1.7443540697        5.0449297294       -1.4129776639
 H          2.1349411518        4.4661378468        0.2560428738
 H         -0.1625151125        5.1195218923        1.0369619302
 H         -0.5750035307        5.6999859841       -0.6278934697
 H         -0.1417699545        3.3967251076       -1.5393514650
 O          1.6941233179        0.9008419334        2.1879157105
