  62
        -98.93770245
 C         -1.2074296984       -1.3716706022        0.5264753917
 C         -2.0470237858       -1.0041666418       -0.5511091519
 C         -3.2168136831       -0.1664710556       -0.2199129438
 C         -3.3868866047        0.2708264547        1.0408873886
 C         -4.4837728606        1.1013198777        1.6746668300
 C         -5.5067805861        1.8329850491        0.8104315233
 C         -4.9398335216        2.9990999367        0.0003069876
 H         -5.7227292817        3.3663119818       -0.6668231349
 H         -4.6837995761        3.8076414914        0.6898178972
 C         -3.6913585853        2.6896390207       -0.8227057227
 H         -2.8721882205        2.4022937572       -0.1591557706
 H         -3.3825562109        3.6123927750       -1.3221732604
 C         -3.8635483164        1.6169275413       -1.8960004091
 H         -2.9448293172        1.5965798838       -2.4890778397
 H         -4.6860456658        1.8906213480       -2.5600496740
 C         -4.1083605355        0.1916944650       -1.3741190442
 H         -5.1536464121        0.0393661906       -1.1164595502
 H         -3.8617364240       -0.5059432639       -2.1799654799
 H         -6.2562328266        2.2414710814        1.4937899493
 H         -6.0221830942        1.1304027226        0.1622045058
 H         -3.9735218010        1.8265309949        2.3171466592
 H         -5.0200219041        0.4203796486        2.3451668389
 O         -2.5059451087       -0.0495087263        2.0348197082
 C         -1.4002122784       -0.8472181475        1.8047631236
 O         -0.6700047726       -1.0097769094        2.8039173875
 O         -1.8509355864       -1.3590887331       -1.7417919874
 C          0.0360261343       -2.2182377185        0.3185735183
 C          0.8415083932       -1.6606989168       -0.8297923680
 C          1.3300563403       -2.4148291649       -1.8878868926
 C          2.0837510516       -1.8135499913       -2.8817315574
 C          2.3876889719       -0.4653467814       -2.8309129720
 C          1.9010706612        0.2979745411       -1.7754692091
 C          1.1322912482       -0.3031067330       -0.7941193601
 H          0.7296591961        0.3036601271        0.0031822778
 N          2.1846984254        1.6688975788       -1.6714602922
 S          2.4244882224        2.3310394719       -0.1557683930
 O          1.1636016693        2.5365906544        0.5130955380
 O          3.2031481731        3.5254932085       -0.4072085977
 C          3.4216984942        1.1323523131        0.7126877460
 C          4.7027782125        0.9141376869        0.2426615942
 C          5.4922702716       -0.0417711164        0.8593512241
 C          4.9883654268       -0.7652025652        1.9299187891
 C          3.7040483260       -0.5301994156        2.3945341864
 C          2.9099702762        0.4276188924        1.7826558602
 H          1.9044145241        0.6244406186        2.1221700141
 H          3.3052643870       -1.0894884484        3.2261082750
 H          5.5991343774       -1.5149847825        2.4073906724
 H          6.4934735169       -0.2226342082        0.5032060873
 H          5.0627888899        1.5033833655       -0.5849290537
 H          2.8401504078        2.0245293631       -2.3513720266
 H          2.9811854336       -0.0022588790       -3.6040935878
 H          2.4472247795       -2.4072997767       -3.7066004655
 H          1.1026026650       -3.4661868364       -1.9489460912
 H          0.6321717751       -2.0627850379        1.2340804635
 C         -0.2181726414       -3.7149566902        0.2222760180
 C         -1.4557909069       -4.3290697473        0.8041632125
 C         -1.2604967131       -4.3003168167       -0.6805593935
 H         -1.0370142216       -5.2300425920       -1.1833763292
 H         -1.8524957141       -3.6159381038       -1.2661852720
 H         -1.3661728366       -5.2733362881        1.3202333580
 H         -2.1886613191       -3.6626495474        1.2364080822
 H          0.6970254321       -4.2867188876        0.3410206526
