  62
        -98.94024503
 C         -1.7510703689       -0.8083855702        0.1154774898
 C         -3.0561151988       -1.0768496905        0.5848473999
 C         -4.0226824291        0.0378940292        0.5441381296
 C         -3.6108026394        1.2336412092        0.0825251694
 C         -4.4188068998        2.4922342590       -0.0896737309
 C         -5.3414399398        2.4396231984       -1.3182991709
 C         -6.0968636494        1.1256758282       -1.5000199306
 H         -6.6230197394        1.1749534078       -2.4571068006
 H         -5.3793834492        0.3057807584       -1.5681654104
 C         -7.1266026493        0.8112918781       -0.4173931205
 H         -7.8657163595        1.6148166479       -0.3817947707
 H         -7.6448732191       -0.1027089721       -0.7187565803
 C         -6.5717086093        0.5989689286        0.9926057195
 H         -7.3696845291        0.1504392985        1.5916562296
 H         -6.3278128095        1.5467078188        1.4649814393
 C         -5.3819502390       -0.3524233210        1.0729876297
 H         -5.2224559089       -0.6218463108        2.1242306998
 H         -5.6407749287       -1.2926799612        0.5727510100
 H         -6.0525092300        3.2647667483       -1.2515792511
 H         -4.7269599798        2.5946114384       -2.2085423609
 H         -4.9866812198        2.6978816190        0.8127635391
 H         -3.7047119000        3.3070984691       -0.2269118511
 O         -2.3351491595        1.4486821695       -0.3504675507
 C         -1.3786859092        0.4508458598       -0.3503314905
 O         -0.2623230293        0.8043130700       -0.7742152405
 H          1.9655904514       -1.9142607994       -0.5730203200
 C          1.7746398213       -1.5797003392        0.4322747700
 C          0.4825957313       -1.5184757994        0.9287814300
 C          0.2915514912       -1.0778488192        2.2369540899
 C          1.3633441811       -0.6966621787        3.0194393098
 C          2.6510176311       -0.7390104485        2.5120326898
 C          2.8539126312       -1.1825531887        1.2119380199
 N          4.1527459313       -1.2637153585        0.6743571699
 S          4.5180151510       -0.4555367987       -0.7462393903
 O          3.6792151612       -0.9323132292       -1.8139079602
 O          5.9419381511       -0.6472529783       -0.9182084103
 C          4.1934133806        1.2612145813       -0.3856105507
 C          5.2604331503        2.0731449117       -0.0497997909
 C          5.0203687500        3.3937022917        0.2913634588
 C          3.7200308798        3.8763477313        0.3013903687
 C          2.6614167901        3.0467200909       -0.0331120511
 C          2.8929674204        1.7242729609       -0.3811337108
 H          2.0743876806        1.0731595806       -0.6452123506
 H          1.6455178900        3.4091105607       -0.0284238511
 H          3.5296546995        4.9036653913        0.5699426585
 H          5.8435590198        4.0403159120        0.5495629987
 H          6.2538742904        1.6550093219       -0.0748084708
 H          4.8822893112       -1.0872286481        1.3513771798
 H          3.4906656310       -0.4358658481        3.1190593697
 H          1.1970564010       -0.3575777586        4.0307590797
 H         -0.7154222888       -1.0379636294        2.6299342999
 C         -0.7215150486       -1.9229176400        0.1159700701
 H         -1.2083638683       -2.7706127700        0.6211366902
 C         -0.3876480485       -2.3318577402       -1.3030944799
 C          0.0716032419       -3.7278380401       -1.5957397296
 C         -1.2958006882       -3.2843060306       -2.0188687296
 H         -1.4860143982       -3.1246557709       -3.0697108497
 H         -2.1481373881       -3.6612707107       -1.4724270496
 H          0.8257359520       -3.8711787601       -2.3551324695
 H          0.1476765221       -4.4129658799       -0.7648711594
 H          0.0438332213       -1.5236751202       -1.8844657900
 O         -3.4088028085       -2.2053861205        1.0237442401
