  62
        -98.94130301
 C         -2.3150493833       -1.1042948646       -0.5186691545
 C         -3.6318440134       -0.9718819295       -0.0104187372
 C         -4.3690622478        0.2275151014       -0.4261957942
 C         -3.7689502520        1.1193835810       -1.2354743530
 C         -4.3789029567        2.4147702091       -1.6850425245
 C         -4.0299661090        3.5570876280       -0.7206649402
 C         -4.2797374995        3.2230777961        0.7501606371
 H         -3.5889579282        2.4344996984        1.0589663362
 H         -4.0281638753        4.1124818105        1.3321959491
 C         -5.7184790301        2.7926492763        1.0688934578
 H         -6.0443554935        3.3074627046        1.9750991573
 H         -6.3846991157        3.1021797135        0.2628629592
 C         -5.8909508933        1.2938224886        1.3217663824
 H         -6.8844525696        1.1332480083        1.7486910871
 H         -5.1589487991        0.9611528837        2.0621880502
 C         -5.7719544455        0.3913567342        0.0872230713
 H         -6.4305543664        0.7588194540       -0.7021393790
 H         -6.1044183785       -0.6101570867        0.3752094318
 H         -4.6144616681        4.4355565273       -1.0001363434
 H         -2.9714149407        3.8005609742       -0.8395669657
 H         -3.9866757015        2.6546968019       -2.6746805432
 H         -5.4588817212        2.2981636879       -1.7507089677
 O         -2.5055703377        0.9597484314       -1.7035474778
 C         -1.7415664922       -0.1444010528       -1.3528173931
 O         -0.6010712227       -0.1486153136       -1.8551747688
 O         -4.1655980202       -1.8198423270        0.7534083249
 C         -1.5020242621       -2.3145730058       -0.0872377604
 C         -0.3955060147       -1.8245495723        0.8132483182
 C         -0.6847562582       -1.5292878964        2.1428954402
 C          0.2819323831       -0.9957855123        2.9742412936
 C          1.5552265497       -0.7374779719        2.4963803429
 C          1.8498523743       -1.0205174546        1.1700632775
 C          0.8826504166       -1.5736143950        0.3406958358
 H          1.1204993525       -1.7728466187       -0.6921396220
 N          3.1411042346       -0.7546222325        0.6686964662
 S          3.7646765932        0.7796771564        1.0104487072
 O          4.3140737460        0.7585362721        2.3439053209
 O          2.7681813259        1.7974777150        0.7590273539
 C          5.0829776464        0.8839860660       -0.1836223435
 C          4.7849591833        1.3066653376       -1.4655737138
 C          5.8017284420        1.3612536125       -2.4057819195
 C          7.0907860845        0.9918870913       -2.0507905002
 C          7.3735690546        0.5691255189       -0.7606920984
 C          6.3615806981        0.5121607523        0.1846041830
 H          6.5328355484        0.1963646456        1.2003500738
 H          8.3771084895        0.2843697447       -0.4888067784
 H          7.8793256172        1.0364618277       -2.7852838868
 H          5.5840006101        1.6907082529       -3.4091063941
 H          3.7704531100        1.5928562416       -1.6969915731
 H          3.1830792428       -0.9236651556       -0.3282390156
 H          2.3143794356       -0.3015883811        3.1256349908
 H          0.0428891251       -0.7710883626        4.0031143423
 H         -1.6857945755       -1.7079080363        2.5109798703
 H         -2.1881828220       -2.9254489293        0.5145613584
 C         -1.0241051652       -3.1350647782       -1.2661012479
 C         -0.5026509006       -4.5204212367       -1.0314174006
 C         -1.8263076620       -4.3218514788       -1.7048403422
 H         -1.9043295627       -4.5269566800       -2.7619851720
 H         -2.7233682754       -4.5515019693       -1.1488982367
 H          0.3296046292       -4.8663396165       -1.6249790941
 H         -0.4997269624       -4.8839261436       -0.0150369733
 H         -0.5586983379       -2.5409838852       -2.0430141457
