  62
        -98.94878374
 C          1.8124233103        1.3378562483       -0.2474333977
 C          2.8862991203        0.6541865732        0.3670570146
 C          3.2635311109       -0.6240236865       -0.2435064836
 C          2.6009167858       -1.0670935883       -1.3278805761
 C          2.8564932313       -2.3602726544       -2.0522985978
 C          2.1350963214       -3.5575768997       -1.4176855504
 C          2.7514161026       -4.0652142288       -0.1133908373
 H          2.3033444788       -5.0389658831        0.0946387373
 H          3.8229358392       -4.2189697447       -0.2498532258
 C          2.5069530461       -3.1474365345        1.0927201518
 H          1.6769691483       -2.4723444377        0.8667843541
 H          2.1955248964       -3.7504358457        1.9499370604
 C          3.7256205694       -2.3331193949        1.5299686310
 H          3.4263912208       -1.6903787708        2.3624330941
 H          4.5046041575       -3.0089615749        1.8910135772
 C          4.3227547104       -1.4406816692        0.4338848212
 H          4.8592815385       -2.0483665440       -0.2941879569
 H          5.0277377004       -0.7494099369        0.9029291052
 H          1.0933056959       -3.2792300644       -1.2363893701
 H          2.1453206491       -4.3732417380       -2.1447051898
 H          3.9280158926       -2.5570647455       -2.0988888959
 H          2.4794506536       -2.2292129037       -3.0687847350
 O          1.5982859174       -0.3631848307       -1.9112627412
 C          1.1355642937        0.8144218975       -1.3500827155
 O          0.1462531947        1.3052314546       -1.9278378098
 O          3.4895252557        1.0853052146        1.3889993020
 C          1.2757594314        2.6067439819        0.3947962147
 C         -0.1594509808        2.3543864091        0.7852274702
 C         -1.2135250940        3.2055322192        0.4816153342
 C         -2.5188796852        2.8386307796        0.7648316806
 C         -2.8019334784        1.6075897816        1.3286208987
 C         -1.7509901466        0.7641909215        1.6615240517
 C         -0.4461601716        1.1534165353        1.4238031229
 H          0.3632325970        0.4792174157        1.6773394491
 N         -2.0425393257       -0.5494414225        2.1390758286
 S         -1.9204984162       -1.6484293013        0.8560304244
 O         -2.2602703559       -2.9409975623        1.4139734185
 O         -0.6247941774       -1.5779744103        0.2154440061
 C         -3.2072949430       -1.0835231595       -0.2286325363
 C         -4.4987503430       -1.5079365020        0.0181688448
 C         -5.5247064223       -1.0290557300       -0.7796971425
 C         -5.2420025830       -0.1329546979       -1.8001905822
 C         -3.9401924832        0.2831655515       -2.0324821801
 C         -2.9064214686       -0.1931820505       -1.2402156006
 H         -1.8844233343        0.1194987665       -1.3966314047
 H         -3.7152426195        0.9820513553       -2.8220602128
 H         -6.0405493007        0.2446495685       -2.4192456782
 H         -6.5381414322       -1.3510684381       -0.6022198017
 H         -4.6649555481       -2.2053768241        0.8226415837
 H         -1.4006069994       -0.8498520111        2.8619248959
 H         -3.8157658106        1.2886955838        1.5074630710
 H         -3.3272532613        3.5074540511        0.5134605822
 H         -1.0136337260        4.1490073986        0.0004294677
 H          1.8744716562        2.7543558821        1.3059137181
 C          1.4585888955        3.8016071322       -0.5152591152
 C          1.5919973069        5.1777923987        0.0637876012
 C          2.7843681665        4.4992570256       -0.5384904761
 H          3.1614588985        4.8569185846       -1.4846899542
 H          3.5522332000        4.1255430540        0.1231366940
 H          1.1527428181        6.0066784544       -0.4701697060
 H          1.5542128702        5.2738660083        1.1383090844
 H          0.9361090195        3.6878137297       -1.4583256949
