  62
        -98.94487096
 C          2.4438307459       -1.1991815075        0.1000694506
 C          3.2628382135       -0.5555865138       -0.8658127052
 C          3.9806303072        0.6450799900       -0.4229427191
 C          3.8374344971        1.0617172095        0.8479380421
 C          4.4607897505        2.3001005569        1.4219298414
 C          3.5263953195        3.5094156167        1.2768898516
 C          2.9580263626        3.6871783276       -0.1312993574
 H          2.2895110362        2.8515667678       -0.3544169345
 H          2.3425474828        4.5895573693       -0.1205635271
 C          4.0186259920        3.8026944446       -1.2354055770
 H          3.7394543382        4.6211129598       -1.9021625938
 H          4.9836117982        4.0572479120       -0.7956970201
 C          4.1705550273        2.5526046901       -2.1040916411
 H          4.7728794817        2.8169321689       -2.9771981923
 H          3.1883083703        2.2380362168       -2.4659931402
 C          4.8438875324        1.3501104368       -1.4307692402
 H          5.0604704164        0.6119340377       -2.2083009600
 H          5.7875346781        1.6617213324       -0.9787629900
 H          4.0763490559        4.4071306404        1.5654317606
 H          2.6888316273        3.3865288449        1.9680662680
 H          5.4041071436        2.4937577631        0.9149916069
 H          4.6555993539        2.1282184947        2.4818711382
 O          3.0607324103        0.4134257916        1.7504744740
 C          2.3309738453       -0.7142664014        1.4028679528
 O          1.6519183670       -1.1694737097        2.3465845225
 O          3.3903998895       -0.9743823942       -2.0469529930
 C          1.6686280729       -2.4202039613       -0.3720183820
 C          0.2448214848       -2.0208109218       -0.6772207838
 C         -0.2022362763       -1.9264050180       -1.9902164800
 C         -1.4889157284       -1.4992866533       -2.2685084742
 C         -2.3507897000       -1.1465617388       -1.2452837259
 C         -1.9088356434       -1.2268579795        0.0684722916
 C         -0.6280191216       -1.6776046451        0.3460040588
 H         -0.2869104683       -1.7161389872        1.3699544311
 N         -2.7688725917       -0.8246791195        1.1151769638
 S         -3.1588175336        0.8154070820        1.1029165221
 O         -2.1188239929        1.5996274685        0.4746044566
 O         -3.4816658097        1.1502079734        2.4729724466
 C         -4.6465727418        0.8793901647        0.1260401446
 C         -5.7591839044        0.2070498849        0.5932298458
 C         -6.9247471469        0.2412158695       -0.1553582422
 C         -6.9583117906        0.9445523015       -1.3504891683
 C         -5.8338231802        1.6171352274       -1.8039981557
 C         -4.6642003187        1.5862925157       -1.0602459259
 H         -3.7634812336        2.0891589495       -1.3745289769
 H         -5.8615889120        2.1637738459       -2.7329178793
 H         -7.8663792554        0.9692555172       -1.9319030901
 H         -7.8013724083       -0.2797762447        0.1943484598
 H         -5.6900300342       -0.3216095290        1.5291923165
 H         -2.3990435923       -1.0633887895        2.0259072559
 H         -3.3509996341       -0.8033076722       -1.4540267690
 H         -1.8218127883       -1.4331154240       -3.2930478289
 H          0.4766739274       -2.1700506510       -2.7945963356
 H          2.1447893521       -2.7115994293       -1.3177541107
 C          1.7408767397       -3.5943346401        0.5825573332
 C          1.4280277161       -4.9658734738        0.0664296960
 C          2.8378718540       -4.6016410359        0.4203701677
 H          3.2768588996       -5.0304804235        1.3086420921
 H          3.5429338042       -4.4474129970       -0.3833554024
 H          0.8958641951       -5.6488911242        0.7104030478
 H          1.1767447734       -5.0595036855       -0.9791392470
 H          1.4378404950       -3.3533878496        1.5929685939
