  62
        -98.94063430
 C         -0.6045542786       -1.4552374941        0.5835908937
 C         -1.1045913950       -0.7531537965       -0.5381564223
 C         -2.1921629423        0.1973112336       -0.2610944607
 C         -2.5367585966        0.4589701556        1.0119571121
 C         -3.5934663292        1.4256230650        1.4777009369
 C         -5.0466869498        1.0539550118        1.1221611899
 C         -5.5600918078        1.6837688016       -0.1786839087
 H         -6.5962987992        1.9946745431       -0.0307822380
 H         -4.9879178328        2.5900843097       -0.3797766081
 C         -5.5386196521        0.7789266867       -1.4144404013
 H         -6.3782177271        0.0823091677       -1.3594554896
 H         -5.6932374349        1.4102027520       -2.2919776586
 C         -4.2690688086       -0.0492268780       -1.6172413263
 H         -4.3010020698       -0.4805672537       -2.6195563359
 H         -4.2644724489       -0.8903613218       -0.9197122900
 C         -2.9547512418        0.7361671746       -1.4359999154
 H         -2.3130041164        0.6017715966       -2.3082948754
 H         -3.1612116370        1.7969329121       -1.3145080877
 H         -5.1451215800       -0.0307904747        1.0866934333
 H         -5.6731308962        1.4076680467        1.9427322092
 H         -3.4917427837        1.4676785352        2.5641285101
 H         -3.3696901295        2.4191256436        1.0839105413
 O         -1.9166200122       -0.1301373841        2.0736858918
 C         -0.9907144825       -1.1428425638        1.8860261789
 O         -0.5849960811       -1.6739224945        2.9412170988
 H          1.7845731484       -0.4423782825        1.0903839403
 C          2.2460984336       -0.9513321948        0.2558984808
 C          1.6519278040       -2.0959335000       -0.2611760177
 C          2.2722615794       -2.7484324074       -1.3189969376
 C          3.4540913424       -2.2586163759       -1.8468983955
 C          4.0393136561       -1.1156268104       -1.3351180142
 C          3.4292769414       -0.4598164023       -0.2710141947
 N          4.0074126103        0.6915498931        0.2839701395
 S          3.0593260564        1.8901208757        0.9394045847
 O          3.9235242991        3.0532631458        0.9558547913
 O          2.5417033503        1.4870393119        2.2237595050
 C          1.7190364114        2.1933815531       -0.1984353343
 C          0.5132726882        2.6129060868        0.3240036383
 C         -0.5066356050        2.9697838151       -0.5418306364
 C         -0.3119059138        2.8860380033       -1.9108263197
 C          0.8983627657        2.4456810989       -2.4204896574
 C          1.9295436444        2.1069548832       -1.5598928062
 H          2.8819989536        1.7752494810       -1.9392259214
 H          1.0440585455        2.3680192959       -3.4856827463
 H         -1.1078916439        3.1627911476       -2.5836059289
 H         -1.4457104241        3.3152939013       -0.1411216233
 H          0.3958080214        2.6468018947        1.3962247018
 H          4.8073987714        1.0601719204       -0.2085981905
 H          4.9615631949       -0.7343765722       -1.7459846582
 H          3.9246254610       -2.7731572534       -2.6706309950
 H          1.8310461621       -3.6404891800       -1.7312373015
 C          0.3838255547       -2.5899176200        0.3892752759
 H          0.6441071430       -2.9389931932        1.4000473642
 C         -0.2814243918       -3.7245094508       -0.3636875755
 C          0.1498365046       -5.1408471513       -0.1339415687
 C         -1.1721076825       -4.6659080013        0.3878299958
 H         -2.0739890121       -5.0170648876       -0.0907664392
 H         -1.2772353852       -4.5055268230        1.4514461578
 H          0.1522692610       -5.8227017171       -0.9709036719
 H          0.9420151870       -5.3129411924        0.5790349668
 H         -0.5894408085       -3.4363099317       -1.3621112768
 O         -0.6843987881       -0.9228798066       -1.7109566376
