  62
        -98.94549041
 C          2.4833708835        1.1999492766        0.0020057680
 C          3.1873135114        0.4174147129        0.9477796939
 C          3.8668495861       -0.7699057357        0.4185603408
 C          3.7927804990       -1.0507709506       -0.8954138620
 C          4.4487636724       -2.2138391317       -1.5891504010
 C          3.6398584674       -3.5166053175       -1.5218918071
 C          3.6180729760       -4.1982841223       -0.1531511411
 H          4.6398302060       -4.3179740670        0.2083792540
 H          3.2037142045       -5.1976940572       -0.2994702180
 C          2.7785473046       -3.4675957431        0.9043361220
 H          2.1466583714       -4.1878868204        1.4295825589
 H          2.1071774556       -2.7601909932        0.4098499025
 C          3.5981756529       -2.7253210147        1.9605232069
 H          4.1739215379       -3.4444592337        2.5470428138
 H          2.9060862240       -2.2172192973        2.6372371137
 C          4.5614053613       -1.6753727245        1.3907603884
 H          5.4119814831       -2.1635850410        0.9162332574
 H          4.9248647255       -1.0600894821        2.2173645485
 H          4.0786474949       -4.2106170838       -2.2424443427
 H          2.6154729571       -3.3097211813       -1.8422213710
 H          5.4417866274       -2.3786244800       -1.1702110206
 H          4.5551765914       -1.9294221415       -2.6381254561
 O          3.1043697161       -0.2736484824       -1.7731124592
 C          2.4101117710        0.8506881286       -1.3467629250
 O          1.7900551222        1.4421785396       -2.2500564619
 O          3.2400328562        0.6947451303        2.1767792773
 C          1.7254416747        2.4252813985        0.4820259109
 C          0.2479906723        2.2186082044        0.2533840045
 C         -0.5667790486        3.1262077389       -0.4089375088
 C         -1.9082387029        2.8463453314       -0.6082061521
 C         -2.4660674668        1.6682311327       -0.1477813236
 C         -1.6613820020        0.7562568773        0.5234310395
 C         -0.3202165303        1.0397243627        0.7223957502
 H          0.3072362999        0.3248242780        1.2417513891
 N         -2.2215010877       -0.4419976872        1.0068015843
 S         -3.0323692638       -1.4121624469       -0.1018856154
 O         -2.9558672841       -2.7508836320        0.4425714601
 O         -2.5200192358       -1.2327497475       -1.4409744349
 C         -4.7159005376       -0.8414548238       -0.0037035736
 C         -5.3664733635       -0.4144626333       -1.1445724572
 C         -6.6785251998        0.0220450069       -1.0436537018
 C         -7.3126306154        0.0230494426        0.1893180973
 C         -6.6456178181       -0.4114665976        1.3252573941
 C         -5.3346535515       -0.8502440500        1.2312378257
 H         -4.7816156046       -1.1988960066        2.0873083935
 H         -7.1420963258       -0.4091385562        2.2821905574
 H         -8.3327458961        0.3648230179        0.2653796522
 H         -7.1983011624        0.3598839834       -1.9257963774
 H         -4.8296286567       -0.4266143301       -2.0798903773
 H         -1.5691442209       -0.9998345580        1.5397817141
 H         -3.5081916533        1.4448570576       -0.3078331786
 H         -2.5281452922        3.5571463533       -1.1329175566
 H         -0.1497589298        4.0469903871       -0.7817106257
 H          1.8998801291        2.4680394776        1.5675910560
 C          2.2755390451        3.6852567900       -0.1499569250
 C          2.1371919901        5.0008621884        0.5545242391
 C          3.4772846767        4.3370249163        0.4634475650
 H          4.2229255627        4.7621719094       -0.1913786788
 H          3.8872664034        3.8834603371        1.3540972741
 H          1.9644982815        5.8868716132       -0.0373481066
 H          1.6378180717        5.0043681754        1.5114509937
 H          2.2121005292        3.6711322911       -1.2320510975
