  62
        -98.93994703
 C         -2.7742097039        0.0302810837       -0.4310275566
 C         -2.8440601713        0.9913114750        0.6120735393
 C         -2.3198910914        2.3251342988        0.3125024153
 C         -1.8324382109        2.5831968409       -0.9140853139
 C         -1.1977283223        3.8711107347       -1.3620933081
 C          0.2866321895        3.9709638348       -0.9811503153
 C          0.5590820157        4.2598242506        0.4962676745
 H         -0.0494501100        5.1048669813        0.8213654521
 H          1.6056641553        4.5610550973        0.5740890956
 C          0.3227726828        3.0602141069        1.4249696446
 H          1.1535701460        2.9777935126        2.1304407398
 H          0.3166046657        2.1416919522        0.8326876915
 C         -0.9594363093        3.1375715754        2.2546531635
 H         -0.8855115981        3.9645828362        2.9651841917
 H         -1.0534191012        2.2088219646        2.8236253647
 C         -2.2419712922        3.3177599539        1.4329495974
 H         -2.3023216893        4.3339592242        1.0439245384
 H         -3.0964850437        3.1413736903        2.0912938634
 H          0.7245776598        4.7754436888       -1.5771612609
 H          0.7792642239        3.0358968348       -1.2611611572
 H         -1.7441842660        4.7197428441       -0.9490450022
 H         -1.2793067595        3.8984155267       -2.4508476475
 O         -1.8722216290        1.6699308346       -1.9169768804
 C         -2.2831887085        0.3576599878       -1.6955119998
 O         -2.1845721392       -0.3632660114       -2.7066855881
 O         -3.3143692550        0.7304774188        1.7528059797
 C         -3.0936707405       -1.3953243878       -0.0117952643
 C         -1.9453093694       -1.8955094280        0.8346845980
 C         -2.1504610885       -2.6668747871        1.9712473613
 C         -1.0744473652       -3.0810650981        2.7381079454
 C          0.2165501326       -2.7167532516        2.4026945958
 C          0.4308318099       -1.9265167628        1.2767580940
 C         -0.6460282147       -1.5499851740        0.4913244375
 H         -0.4701555407       -0.9587518528       -0.3944678066
 N          1.7177839120       -1.4634852957        0.9633006190
 S          2.0698080546       -0.7920381601       -0.5392845042
 O          1.3727576026        0.4605585110       -0.6740689256
 O          1.8677094352       -1.7725193617       -1.5842299195
 C          3.8107428524       -0.4827199879       -0.3199854345
 C          4.1963646864        0.6756254576        0.3275938614
 C          5.5467059751        0.9132495878        0.5285188500
 C          6.4836650384       -0.0067992656        0.0815905986
 C          6.0818943557       -1.1634174983       -0.5695580321
 C          4.7325821978       -1.4071137164       -0.7731721928
 H          4.3737360819       -2.2861266869       -1.2841983277
 H          6.8127376182       -1.8742415406       -0.9200275886
 H          7.5340863974        0.1807637317        0.2384822679
 H          5.8625442751        1.8133452299        1.0307630011
 H          3.4310203678        1.3640022713        0.6473885523
 H          2.4644490924       -2.0454974243        1.3145789846
 H          1.0515059856       -3.0222903960        3.0138764732
 H         -1.2445247657       -3.6847718269        3.6166602827
 H         -3.1578424593       -2.9237628810        2.2638962416
 H         -3.9773680278       -1.3287095302        0.6444297229
 C         -3.4368207819       -2.3400934708       -1.1498232399
 C         -2.4372661128       -3.2778155443       -1.7505082687
 C         -3.5526491732       -3.8164258619       -0.9084161356
 H         -4.3511959880       -4.3539241842       -1.3966220336
 H         -3.3006442991       -4.1878547958        0.0729332696
 H         -2.4658685944       -3.4208575662       -2.8197776073
 H         -1.4351730679       -3.2772160613       -1.3475528702
 H         -4.1508593005       -1.9005466167       -1.8378771984
