  62
        -98.93989659
 C         -2.6397045676       -0.2040177107        0.5485497569
 C         -2.1676904633        0.2436512166       -0.7116582402
 C         -1.9866251297        1.6970901036       -0.8513859689
 C         -2.2474219869        2.5022768622        0.1929466657
 C         -2.1066285011        3.9965652101        0.1864022142
 C         -0.7212473047        4.4437955000        0.6693544097
 C          0.4432374561        3.7289270387       -0.0170425166
 H          1.3641196872        4.1827237891        0.3572224794
 H          0.4625155208        2.6797262979        0.2865140015
 C          0.4293214199        3.8053145618       -1.5497531111
 H         -0.2046978506        4.6311446967       -1.8769473303
 H          1.4438016565        4.0155908202       -1.8953336894
 C         -0.0143493331        2.5162917117       -2.2457297712
 H          0.5328271562        1.6655269216       -1.8278734888
 H          0.2584176892        2.5887621635       -3.3026637164
 C         -1.5159653296        2.2065442588       -2.1838672659
 H         -2.0867466335        3.0885322138       -2.4848506958
 H         -1.7174728764        1.4038860875       -2.8996517520
 H         -0.6345187334        5.5200578754        0.5061067899
 H         -0.6508431447        4.2552795933        1.7431178680
 H         -2.2857766330        4.3638107430       -0.8224082289
 H         -2.8636851437        4.4119035678        0.8544607930
 O         -2.6594744041        2.0340551366        1.3995913027
 C         -2.8314817483        0.6768374390        1.6144321240
 O         -3.1554424322        0.3822029887        2.7838865510
 O         -1.9282260963       -0.5184873132       -1.6834766493
 C         -2.8231263031       -1.6845796018        0.8500822389
 C         -1.6062723031       -2.4228768034        0.3505098556
 C         -1.6327907741       -3.4574498849       -0.5745029979
 C         -0.4530730807       -4.0093618092       -1.0449283220
 C          0.7742100504       -3.5372336805       -0.6144750874
 C          0.8068073550       -2.5229402143        0.3293693332
 C         -0.3716933095       -1.9892682264        0.8177201643
 H         -0.3331711679       -1.1752359773        1.5333209013
 N          2.0665810708       -1.9731946472        0.7288694281
 S          2.2954679562       -0.4882015483       -0.0586969909
 O          1.5373141748        0.5515698999        0.6065641736
 O          2.0482241356       -0.6827844101       -1.4634548492
 C          4.0394729400       -0.2261057652        0.2065671623
 C          4.9195936635       -1.1061481859       -0.3933820137
 C          6.2790384288       -0.9408553233       -0.1846266112
 C          6.7333962849        0.0968110646        0.6163954062
 C          5.8379693090        0.9723376754        1.2107800395
 C          4.4758915908        0.8104538044        1.0072348980
 H          3.7424091186        1.4673318518        1.4471178645
 H          6.1930925740        1.7789576708        1.8318257294
 H          7.7921893764        0.2246379984        0.7774143418
 H          6.9787258626       -1.6191894445       -0.6456082041
 H          4.5185244885       -1.8917868935       -1.0116640396
 H          2.0747951893       -1.7727998027        1.7220385478
 H          1.6986239676       -3.9285520141       -1.0062426617
 H         -0.4917952490       -4.8012733105       -1.7774471684
 H         -2.5776848436       -3.8046587570       -0.9599282803
 H         -2.8304507055       -1.7487601487        1.9513371563
 C         -4.1399780187       -2.2762768648        0.3735392733
 C         -5.3631988760       -1.4199730534        0.2411607410
 C         -4.7098845633       -1.9875766692       -0.9812691804
 H         -5.2136998051       -2.7876628436       -1.5037737842
 H         -4.1535537765       -1.3263836258       -1.6260326422
 H         -6.3114156811       -1.8280230660        0.5573620032
 H         -5.2546816422       -0.3626323183        0.4361892820
 H         -4.2962350549       -3.2769307552        0.7649052192
