  62
        -98.94050645
 C          1.3667892252        0.9435375673       -0.1324220516
 C          2.4802819345        0.9374097816        0.7444237843
 C          3.4807445140       -0.1273807334        0.5636007938
 C          3.2960369642       -1.0412618621       -0.4070143677
 C          4.1049174061       -2.2601364682       -0.8002103512
 C          5.5163936644       -2.4681872651       -0.2578687039
 C          6.5520001912       -1.4698004523       -0.7749307996
 H          6.7278274147       -1.6714050937       -1.8345992247
 H          7.4898465875       -1.6436643713       -0.2430258119
 C          6.1708211673        0.0025600682       -0.6437435011
 H          5.2809857162        0.2052995006       -1.2431109545
 H          6.9857820570        0.5974719254       -1.0648699425
 C          5.9292016966        0.4902131894        0.7832278841
 H          5.8218697005        1.5775681192        0.7460094555
 H          6.7987866981        0.2613200317        1.4023187196
 C          4.6750924749       -0.0740866516        1.4726043694
 H          4.4058122491        0.6014880480        2.2898817584
 H          4.8690050676       -1.0512013912        1.9091237589
 H          5.8294152688       -3.4652366989       -0.5797473887
 H          5.5031259812       -2.4790260857        0.8280493825
 H          4.1382448136       -2.2565533877       -1.8945860936
 H          3.4912282158       -3.1226442849       -0.5157282622
 O          2.2065628210       -1.0019450600       -1.2254320851
 C          1.2197444241       -0.0330735441       -1.1166325299
 O          0.3072533489       -0.1657289358       -1.9547852768
 O          2.6336391663        1.7989647186        1.6527976597
 C          0.3454519390        2.0426177857        0.0879454159
 C         -0.7449196875        1.6253857921        1.0495295260
 C         -1.2906452168        2.5499205550        1.9338918739
 C         -2.3033560500        2.1825250812        2.8003686200
 C         -2.7982264129        0.8908157622        2.7960518388
 C         -2.2569251351       -0.0432168778        1.9200887811
 C         -1.2371717778        0.3295900098        1.0547289449
 H         -0.8160882815       -0.4112946058        0.3943276149
 N         -2.7214509287       -1.3656528408        1.9123540102
 S         -2.8406738939       -2.2195446923        0.4781986779
 O         -3.7460438532       -3.3046845010        0.7971118904
 O         -1.5329904178       -2.6103182576        0.0174089689
 C         -3.6418193103       -1.0927986102       -0.6477751450
 C         -4.9826532276       -0.8385027879       -0.4260901249
 C         -5.6399993572        0.0667696624       -1.2413214820
 C         -4.9467905440        0.7040528126       -2.2598565251
 C         -3.6045067802        0.4339571727       -2.4709639325
 C         -2.9383516061       -0.4726739899       -1.6588244926
 H         -1.8909722755       -0.6907567007       -1.8012767476
 H         -3.0612025153        0.9244910166       -3.2633491059
 H         -5.4552328508        1.4127185473       -2.8944411606
 H         -6.6856575704        0.2743016263       -1.0810635194
 H         -5.4875609845       -1.3663510528        0.3666792758
 H         -3.5116511114       -1.5411424487        2.5154494049
 H         -3.5868128349        0.6001557096        3.4728425620
 H         -2.7136848031        2.9079451696        3.4858711843
 H         -0.9041433253        3.5574550638        1.9508948495
 H          0.9019132397        2.8645533337        0.5605866268
 C         -0.2882887470        2.5638993953       -1.1880281230
 C         -0.7467313229        3.9880085726       -1.2641609951
 C          0.4591743544        3.5463935704       -2.0368151122
 H          0.3892470950        3.4549315412       -3.1100764519
 H          1.4319615060        3.8648239571       -1.6907284834
 H         -1.6537874746        4.2059282374       -1.8060210329
 H         -0.5867990430        4.6178096075       -0.4027293345
 H         -0.8802059422        1.8175693901       -1.7007546556
