  62
        -98.94322113
 C         -0.8434229785       -1.7589574698       -0.2349031809
 C         -2.1425810687       -1.7604988304        0.3157411488
 C         -3.0507033491       -0.6887020409       -0.1311284115
 C         -2.5882617394        0.2356264393       -0.9914883214
 C         -3.2864542199        1.4786201089       -1.4720416416
 C         -3.0020653108        2.6573349691       -0.5221890016
 C         -4.0189284712        2.8346486286        0.6028097781
 H         -3.6666186218        3.6580623788        1.2286342682
 H         -4.9837933412        3.1260422681        0.1815644079
 C         -4.2100406308        1.5992375685        1.4846734081
 H         -3.2334397906        1.1597799090        1.7007277284
 H         -4.6333771612        1.9257028283        2.4368392080
 C         -5.1365542500        0.5468483080        0.8591439779
 H         -5.6556359801        0.9854354877        0.0072420177
 H         -5.9071003401        0.2678908276        1.5813515077
 C         -4.4444729593       -0.7529696216        0.4341361481
 H         -5.0818760388       -1.2728167320       -0.2902385920
 H         -4.3588333891       -1.4147218816        1.3023416182
 H         -2.9736247511        3.5816634891       -1.1038054616
 H         -2.0131740808        2.5133567596       -0.0765059913
 H         -2.8693541298        1.7086892191       -2.4544850415
 H         -4.3542401798        1.3107013283       -1.5779077219
 O         -1.3329686392        0.1866405899       -1.5177724411
 C         -0.4333746988       -0.8022969096       -1.1641112808
 O          0.6723949813       -0.7255875890       -1.7309747005
 O         -2.5271761485       -2.6162308206        1.1616647587
 C          0.1616239019       -2.7910214592        0.2340723894
 C          1.4155972214       -2.1329805685        0.7597395197
 C          2.6447125117       -2.7840535379        0.7688761701
 C          3.7737297313       -2.1488933873        1.2552538103
 C          3.7133922005       -0.8437431873        1.7098279303
 C          2.4903174501       -0.1839244079        1.7023397099
 C          1.3534731706       -0.8420658986        1.2641976697
 H          0.4116573203       -0.3158412791        1.2920581794
 N          2.3739002993        1.1526761520        2.1248281099
 S          1.4597538490        2.2220776815        1.2232402896
 O          1.8786381082        3.5261365617        1.7005693897
 O          0.0535851991        1.9380574508        1.3718924892
 C          1.9491847595        2.0652987217       -0.4861308403
 C          1.0224874596        2.3978468012       -1.4513062605
 C          1.3874777100        2.3434304213       -2.7856449404
 C          2.6715307303        1.9586859020       -3.1329373601
 C          3.5951070302        1.6358239625       -2.1525163398
 C          3.2365495898        1.6942859224       -0.8158165499
 H          3.9446833497        1.4432877628       -0.0435700797
 H          4.5935981404        1.3322760530       -2.4239054595
 H          2.9514831406        1.9054257621       -4.1733441800
 H          0.6639778100        2.5891353009       -3.5465975506
 H          0.0268158894        2.6751214707       -1.1448575408
 H          3.2378803490        1.5834604225        2.4216193301
 H          4.5994142401       -0.3407427368        2.0670176905
 H          4.7185288315       -2.6704229368        1.2626400406
 H          2.7164721924       -3.7913309579        0.3918574401
 H         -0.3270250281       -3.3246652795        1.0638821293
 C          0.4565422127       -3.7852549991       -0.8738568705
 C          0.6776322034       -5.2352409290       -0.5645893004
 C         -0.5896803967       -4.7965434997       -1.2322550407
 H         -0.7396475363       -5.0379861998       -2.2737502708
 H         -1.4998767068       -4.7898393001       -0.6502609210
 H          1.3998425138       -5.7829870786       -1.1511349002
 H          0.6191230433       -5.5434501390        0.4685592796
 H          1.0219468227       -3.3408469788       -1.6853043803
