  62
        -98.93659425
 C         -0.6184973113       -1.9717365590        0.1877164599
 C         -1.1632644510       -1.1903865194       -0.8577713205
 C         -2.3870985606       -0.4198795685       -0.5392041908
 C         -2.9567976705       -0.5542313074        0.6706836294
 C         -4.1973561301        0.1070466236        1.2171894691
 C         -5.4039910101        0.1960457336        0.2708799892
 C         -5.6957615495        1.6194390235       -0.2072671117
 H         -6.7469815195        1.6826203638       -0.4968021416
 H         -5.5466441190        2.3048870339        0.6294560579
 C         -4.8610256994        2.0887881423       -1.3980087721
 H         -5.1985056498        1.5759574218       -2.3013892417
 H         -5.0545440788        3.1547049923       -1.5392467628
 C         -3.3511850795        1.8794780115       -1.2622225522
 H         -3.0195734292        2.1206424220       -0.2527731424
 H         -2.8517784292        2.5826014508       -1.9331118927
 C         -2.8893929103        0.4655266010       -1.6468316013
 H         -3.6860925306       -0.0556373489       -2.1860191309
 H         -2.0523475203        0.5358495601       -2.3500468915
 H         -5.2584550206       -0.4672987670       -0.5802286704
 H         -6.2802798203       -0.1623861056        0.8133839896
 H         -4.4615591702       -0.4780278057        2.1011679795
 H         -3.9352147395        1.1072032337        1.5718062184
 O         -2.4225351608       -1.3591835771        1.6337559998
 C         -1.2481345712       -2.0572158478        1.4326358601
 O         -0.8756597614       -2.7225525874        2.4187688905
 H          1.5163361093       -0.5164888511       -1.2473172013
 C          2.1515224292       -0.7750481009       -0.4142398112
 C          1.8685981688       -1.8921304702        0.3614485595
 C          2.7113392987       -2.2019524800        1.4229694796
 C          3.8162141992       -1.4178558704        1.6998462289
 C          4.0914462597       -0.3026438210        0.9306641482
 C          3.2523954497        0.0217112487       -0.1299876219
 N          3.5206074802        1.1536344681       -0.9194270927
 S          2.2910969607        2.2384572785       -1.2562099532
 O          1.4197398303        1.7189894383       -2.2749167627
 O          2.9855638513        3.4670619979       -1.5802832741
 C          1.4309422610        2.4235247000        0.2943354968
 C          0.2659827007        1.7206507208        0.5182693674
 C         -0.3445358891        1.8157345019        1.7588480574
 C          0.2142357815        2.6120990522        2.7458931368
 C          1.3812160318        3.3208768914        2.5013624662
 C          2.0014152316        3.2216778703        1.2671136062
 H          2.9053721319        3.7608004297        1.0342512857
 H          1.8088407323        3.9437777017        3.2702189258
 H         -0.2654966683        2.6797233031        3.7095820169
 H         -1.2465553093        1.2547679525        1.9490540479
 H         -0.1468523397        1.1157389705       -0.2724472121
 H          4.3551408105        1.6529023378       -0.6452557331
 H          4.9508062100        0.3144323787        1.1445038277
 H          4.4635512892       -1.6723865502        2.5249089890
 H          2.4866876984       -3.0603151294        2.0386832202
 C          0.6717555782       -2.7667397398        0.0663661503
 H          0.6191499679       -3.5300150192        0.8550581208
 C          0.8439132577       -3.4741505807       -1.2632464593
 C          1.7175212570       -4.6895082412       -1.3273587486
 C          0.2307397469       -4.8265515505       -1.4580875383
 H         -0.1862964133       -5.0671531209       -2.4244448981
 H         -0.3173778932       -5.2506271297       -0.6289793180
 H          2.3270015068       -4.8379265621       -2.2054928786
 H          2.1772280770       -5.0260493409       -0.4103910685
 H          0.8490282479       -2.8044107113       -2.1127632197
 O         -0.6722725612       -1.1111853104       -2.0150674306
