  62
        -98.94054686
 C         -2.3386439155        0.2090783521       -0.2661089861
 C         -3.5181131961        0.6197251415       -0.9319317666
 C         -4.7232517728       -0.1710290918       -0.6505741963
 C         -4.6377552652       -1.2245182316        0.1824750261
 C         -5.7961478269       -2.0829735604        0.5991737529
 C         -6.4513969378       -1.5474607459        1.8800732095
 C         -6.7611723035       -0.0511021759        1.8363856439
 H         -5.8223435650        0.5061223841        1.7957647724
 H         -7.2473031468        0.2079980029        2.7794496107
 C         -7.6559879274        0.3779098539        0.6651555170
 H         -8.4219408148        1.0594968562        1.0409869782
 H         -8.1697531713       -0.4915407698        0.2536252055
 C         -6.9208627713        1.1103773807       -0.4588164496
 H         -6.3285799555        1.9269992972       -0.0382328324
 H         -7.6685103534        1.5556864595       -1.1205428333
 C         -5.9990534919        0.2451266451       -1.3274296339
 H         -5.6973310126        0.8447607680       -2.1912094483
 H         -6.5464210260       -0.6276003933       -1.6891055599
 H         -5.7750666847       -1.7324814057        2.7177874647
 H         -7.3720788953       -2.1065913759        2.0563283525
 H         -6.5255179132       -2.1169043108       -0.2077148257
 H         -5.4256163192       -3.0922495967        0.7857707496
 O         -3.4811145196       -1.6033752620        0.7842616606
 C         -2.3047869997       -0.8956446489        0.5845849213
 O         -1.3238029381       -1.3455627011        1.2062665575
 H          1.5355711582        0.5845832092        0.3913949408
 C          1.2809220730        0.0064176219       -0.4806079761
 C          0.0178890081        0.0910437678       -1.0427179472
 C         -0.2630378658       -0.6774985545       -2.1703723938
 C          0.6938020242       -1.5123809485       -2.7125217626
 C          1.9565226521       -1.5900225044       -2.1510919001
 C          2.2469739541       -0.8289908496       -1.0256688873
 N          3.5094941463       -0.9090563829       -0.4169814472
 S          4.1548391233        0.4671299115        0.3144443308
 O          3.6054342587        0.6025748416        1.6396821253
 O          4.0065471762        1.6095975009       -0.5591128106
 C          5.8702010793       -0.0093722170        0.4229374846
 C          6.2597318135       -0.8466109243        1.4515189331
 C          7.5847423540       -1.2455588865        1.5251107336
 C          8.4932190413       -0.8035703172        0.5745688154
 C          8.0881620859        0.0379669463       -0.4504849345
 C          6.7639597277        0.4396972289       -0.5308534940
 H          6.4052280642        1.0991289255       -1.3047026693
 H          8.7975139739        0.3823551916       -1.1856588075
 H          9.5241341620       -1.1147129811        0.6352422157
 H          7.9038002547       -1.8974142663        2.3223205801
 H          5.5200780241       -1.1568323827        2.1712889516
 H          4.1936280316       -1.3858335000       -0.9881795509
 H          2.7058366378       -2.2412678762       -2.5747947577
 H          0.4588722951       -2.1034308212       -3.5850812475
 H         -1.2478911986       -0.6113854432       -2.6130849091
 C         -1.0589661464        0.9926202248       -0.4923114268
 H         -1.3041742344        1.7387370029       -1.2636443224
 C         -0.6528399247        1.7198842237        0.7717607189
 C          0.1828530935        2.9610670140        0.6905664273
 C         -1.2617010908        3.0539874596        1.0779946490
 H         -1.5076876773        3.2858188987        2.1033966919
 H         -1.9585655275        3.4574672226        0.3578145180
 H          0.4728662199        3.3041544240       -0.2913704086
 H          0.9369198511        3.1226978780        1.4467725804
 H         -0.4802363049        1.0455935986        1.6041728935
 O         -3.5590133163        1.5971703407       -1.7272548200
