  62
        -98.94188828
 C         -2.7718005904       -0.2612278719       -0.2526733076
 C         -2.0257589338        0.5586759765       -1.1341371473
 C         -2.0102362153        1.9952499252       -0.8221994719
 C         -2.7040737482        2.4562911599        0.2325981345
 C         -2.7370820282        3.8865587905        0.6850649642
 C         -1.6537019140        4.1704932903        1.7344274510
 C         -0.2583878685        3.6816733681        1.3436223158
 H          0.4260072773        3.9892220233        2.1379290186
 H         -0.2425656880        2.5885706212        1.3244711495
 C          0.2528476591        4.2128257136       -0.0025281957
 H         -0.3127122617        5.0994144602       -0.2932279511
 H          1.2951383436        4.5149317021        0.1191069584
 C          0.2150423293        3.1852196536       -1.1354052765
 H          0.8314703766        3.5593826151       -1.9576842791
 H          0.6570856323        2.2499036896       -0.7802026641
 C         -1.1763417122        2.8791226311       -1.7059247046
 H         -1.6988339962        3.8119525221       -1.9274014700
 H         -1.0427365724        2.3286381474       -2.6416600706
 H         -1.9369602892        3.6781482233        2.6677374791
 H         -1.6242599862        5.2471338657        1.9136423192
 H         -2.6014145507        4.5368865156       -0.1769015253
 H         -3.7157181166        4.0828130472        1.1268126680
 O         -3.4414121477        1.6478148139        1.0360087975
 C         -3.4651954034        0.2799267602        0.8351651553
 O         -4.1466152120       -0.3451442712        1.6732217302
 H         -0.2741254206       -1.4185524760       -1.1632798155
 C         -0.3260070065       -2.0216695341       -0.2690227549
 C         -1.5657422973       -2.3416773837        0.2655750194
 C         -1.6070785636       -3.1054124294        1.4258905685
 C         -0.4374239523       -3.5187833927        2.0414788903
 C          0.7964664386       -3.1601480023        1.5271610237
 C          0.8437766285       -2.4023031018        0.3660340156
 N          2.0999666517       -1.9502483144       -0.1265807079
 S          2.6054406258       -0.6148874194        0.7942527168
 O          2.9348427632       -1.0922920566        2.1138346636
 O          1.6188372943        0.4413142412        0.7288049658
 C          4.0907200763       -0.1327800001       -0.0651471316
 C          5.2468557152       -0.8560316111        0.1571062174
 C          6.3961419401       -0.5087903225       -0.5345002857
 C          6.3695544031        0.5483449593       -1.4322510817
 C          5.2013733517        1.2646212833       -1.6441754383
 C          4.0475947262        0.9213291256       -0.9567331832
 H          3.1187028190        1.4542401509       -1.0866138613
 H          5.1826824678        2.0871580773       -2.3409508303
 H          7.2653000368        0.8174309915       -1.9693709769
 H          7.3070259790       -1.0619586787       -0.3720518438
 H          5.2202426252       -1.6633097017        0.8698423673
 H          1.9956836222       -1.6232744512       -1.0810314591
 H          1.7142222502       -3.4302555525        2.0232350736
 H         -0.4877288517       -4.1077319792        2.9449074723
 H         -2.5650672839       -3.3486972587        1.8627078776
 C         -2.8223551288       -1.7808142284       -0.3569084786
 H         -3.6743310911       -2.0955637018        0.2603138805
 C         -3.0352281859       -2.2924967233       -1.7670782804
 C         -3.5722654452       -3.6776487158       -1.9600342869
 C         -4.4322275118       -2.4900185856       -2.2698784012
 H         -4.6442690118       -2.2585405211       -3.3027655830
 H         -5.2432296609       -2.2566527374       -1.5951631154
 H         -3.1932319380       -4.2662529436       -2.7811772064
 H         -3.8024771564       -4.2523002521       -1.0756080839
 H         -2.3005182407       -1.9320021881       -2.4741368454
 O         -1.3934517202        0.1400445922       -2.1422890608
