  62
        -98.94276410
 C         -1.8157501615       -1.0012694138       -0.2266727229
 C         -3.1925295348       -1.3229273053       -0.1113524080
 C         -4.1373357700       -0.2638068801       -0.4820816286
 C         -3.6724628648        0.9298590719       -0.8926212216
 C         -4.5070616789        2.1030013325       -1.3297026532
 C         -5.0153464322        2.9740948810       -0.1726450310
 C         -6.1301987957        2.3519982922        0.6691314488
 H         -6.5388745548        3.1464269359        1.2967864638
 H         -6.9320899746        2.0107932537        0.0136261941
 C         -5.6732521391        1.1969510042        1.5711828259
 H         -4.5858791261        1.2231298092        1.6733153502
 H         -6.0914174029        1.3286154761        2.5716976927
 C         -6.0912053557       -0.1909809141        1.0853843813
 H         -5.6837409564       -0.9337593365        1.7760673753
 H         -7.1800839115       -0.2744312697        1.1062636153
 C         -5.6023175568       -0.5399906041       -0.3264243385
 H         -6.1749782058        0.0134499633       -1.0705373122
 H         -5.7586105859       -1.6094404013       -0.4883610105
 H         -4.1703089386        3.2271841286        0.4717128570
 H         -5.3927644966        3.9029997400       -0.6063303011
 H         -5.3533437482        1.7504988496       -1.9201354214
 H         -3.8691788472        2.7174100369       -1.9687126770
 O         -2.3450518644        1.2066820248       -0.9726961847
 C         -1.3844167668        0.2640342624       -0.6249910545
 O         -0.2166666795        0.6840996734       -0.7155093055
 O         -3.6107901320       -2.4427227788        0.2857990998
 C         -0.8093218263       -2.0722892251        0.1506306471
 C          0.2692618977       -1.5024488636        1.0378998450
 C         -0.1001711513       -0.9333297191        2.2548812015
 C          0.8493706805       -0.4040536671        3.1058805589
 C          2.1905758657       -0.4352997413        2.7646344809
 C          2.5721822203       -1.0066635954        1.5572852775
 C          1.6135219720       -1.5383925745        0.7033528856
 H          1.9371777842       -1.9531706239       -0.2359122714
 N          3.9325401145       -1.0968789772        1.2140890977
 S          4.5212518363       -0.6065630420       -0.2720261891
 O          3.8388308094       -1.3027492604       -1.3309175721
 O          5.9488156790       -0.8263053618       -0.1813405923
 C          4.2060096973        1.1477995101       -0.3470583643
 C          2.9169986291        1.5996145228       -0.5459486092
 C          2.6872003986        2.9672984627       -0.5521087802
 C          3.7367176018        3.8524562443       -0.3624962436
 C          5.0254762080        3.3802275958       -0.1626286010
 C          5.2633526747        2.0158832548       -0.1499064487
 H          6.2478319942        1.6028947076        0.0000756572
 H          5.8415852381        4.0692853771       -0.0154365117
 H          3.5483152061        4.9146412794       -0.3706370092
 H          1.6794124894        3.3201358987       -0.7039374131
 H          2.1044265260        0.9053410558       -0.6894507693
 H          4.5579324626       -0.7774721974        1.9404416838
 H          2.9355603466       -0.0244273981        3.4291847713
 H          0.5455808629        0.0381278957        4.0428163084
 H         -1.1484827492       -0.9081991819        2.5211045904
 H         -1.3905672401       -2.7936288396        0.7504504225
 C         -0.2558667083       -2.8465353655       -1.0362757135
 C         -1.0459659229       -3.0142858658       -2.2986496108
 C          0.1912104361       -2.1698515773       -2.2958346675
 H          1.0790599955       -2.5386785745       -2.7890830805
 H          0.0836277684       -1.0980561185       -2.3527769325
 H         -1.0173849685       -3.9714995874       -2.7972352678
 H         -2.0028581551       -2.5165874598       -2.3626260138
 H          0.3246932864       -3.7086614537       -0.7206694817
