  62
        -98.94327546
 C          1.3111370517        1.0029313013       -0.0094133187
 C          1.8051645837       -0.0901903463        0.7424330030
 C          2.7630281222       -0.9643145602        0.0519063593
 C          3.0907112597       -0.7004125975       -1.2262649158
 C          4.0903305688       -1.4782310664       -2.0314496722
 C          5.4979158613       -0.8807485278       -1.8967788736
 C          5.9227861993       -0.6207283345       -0.4514745982
 H          6.9420685938       -0.2293752276       -0.4781283775
 H          5.2890752645        0.1626478197       -0.0295574574
 C          5.8730912906       -1.8568404834        0.4574640589
 H          6.7878745935       -1.8901155996        1.0529667969
 H          5.8499603888       -2.7624225555       -0.1499282894
 C          4.7007571458       -1.8747578725        1.4399919165
 H          4.6671029649       -0.9283292987        1.9852887158
 H          4.8824490200       -2.6673811006        2.1706485088
 C          3.3182354200       -2.1271222582        0.8253227877
 H          3.3502359826       -3.0247324306        0.2042660752
 H          2.6171868670       -2.3002919981        1.6469936894
 H          6.2080717510       -1.5610536842       -2.3705264497
 H          5.5243403486        0.0680762197       -2.4377684663
 H          4.0913998616       -2.5144121005       -1.6982557069
 H          3.7896962192       -1.4438672928       -3.0801505281
 O          2.5735427741        0.3428059446       -1.9253638521
 C          1.6740249858        1.2233769424       -1.3378532553
 O          1.2762547260        2.1307458224       -2.0923453837
 H         -0.7953612992       -0.1195444429       -0.6705283864
 C         -1.4496613774        0.7439543288       -0.6608838164
 C         -1.0197712385        1.9149167956       -0.0516724426
 C         -1.8840434330        3.0040930970       -0.0453929169
 C         -3.1353662153        2.9189125341       -0.6315619388
 C         -3.5577563079        1.7475753785       -1.2350719207
 C         -2.6996799138        0.6586316921       -1.2537901313
 N         -3.1437780308       -0.5619047189       -1.8270644211
 S         -4.0984937509       -1.4526664031       -0.7711235736
 O         -4.2674259547       -2.7524489119       -1.3802738465
 O         -5.3006053626       -0.7050708525       -0.5077728403
 C         -3.1069592760       -1.5778091260        0.7052240814
 C         -3.1674139465       -0.5634818366        1.6396841433
 C         -2.2947767111       -0.5934983742        2.7154725831
 C         -1.3775483895       -1.6257371071        2.8353984167
 C         -1.3337504014       -2.6394000401        1.8908991239
 C         -2.1996111753       -2.6132139393        0.8098920999
 H         -2.1921449332       -3.3786504027        0.0495738388
 H         -0.6158341823       -3.4383424634        1.9864136967
 H         -0.6813309043       -1.6326914976        3.6584723011
 H         -2.3223840670        0.1958462168        3.4493662733
 H         -3.8898629519        0.2258664772        1.5081988658
 H         -2.3785682545       -1.1481481612       -2.1322233584
 H         -4.5359075624        1.6541204957       -1.6773469372
 H         -3.7920358849        3.7752470477       -0.6155707942
 H         -1.5762026092        3.9236186339        0.4253466833
 C          0.3188551949        1.9417413508        0.6452158007
 H          0.1687149723        1.5390019085        1.6593661939
 C          0.8989758726        3.3378442293        0.7582114497
 C          0.6001620179        4.1953404060        1.9507124746
 C          1.9622052268        3.5945635107        1.7828975278
 H          2.7869644756        4.2402851262        1.5211523633
 H          2.2399949091        2.7703474923        2.4237397354
 H         -0.0393078291        3.7847887911        2.7174044459
 H          0.4906186969        5.2595616068        1.8052448680
 H          1.0081545723        3.8203840471       -0.2065331549
 O          1.4565092329       -0.3255758510        1.9289156433
