  62
        -98.94969786
 C         -0.7760400848       -1.7916785846       -0.1408109249
 C         -1.9493745921       -1.6733771239        0.6389819983
 C         -2.9615090927       -0.7327949369        0.1407166026
 C         -2.7257812993       -0.0563937888       -0.9983400861
 C         -3.6770685532        0.9237908352       -1.6230769712
 C         -3.4319142761        2.3619096389       -1.1459482234
 C         -3.2912376534        2.5018479168        0.3700784150
 H         -2.3853484839        1.9910308247        0.7091848746
 H         -3.1481212932        3.5635630421        0.5866975248
 C         -4.4935670724        1.9777481549        1.1674430874
 H         -4.7316445186        2.6998752622        1.9513576001
 H         -5.3664313064        1.9037478010        0.5170957995
 C         -4.2595648792        0.6332959199        1.8587112737
 H         -3.3203795703        0.6717736455        2.4178684722
 H         -5.0650566404        0.4780876100        2.5818313176
 C         -4.2270894045       -0.5935557793        0.9382063533
 H         -4.2811057381       -1.4851245822        1.5701619609
 H         -5.1008211443       -0.5843040800        0.2827659984
 H         -2.5178687512        2.7375319221       -1.6110302222
 H         -4.2621624485        2.9825727557       -1.4890657855
 H         -3.5446244087        0.8832773978       -2.7057216565
 H         -4.6959315394        0.6246515185       -1.3830578546
 O         -1.5781427070       -0.1834395069       -1.7119808057
 C         -0.5654697008       -1.0358853994       -1.2935763263
 O          0.4428645451       -1.0369230587       -2.0229588252
 O         -2.1473291696       -2.3347779824        1.6955420472
 C          0.3093554280       -2.7536968037        0.3003148824
 C          1.6117669827       -2.0323435999        0.5453193737
 C          2.8502666092       -2.5960019099        0.2613553574
 C          4.0164323036       -1.9042584229        0.5376997457
 C          3.9755263191       -0.6380502110        1.0920085556
 C          2.7422952531       -0.0672739800        1.3832349194
 C          1.5771239418       -0.7678891240        1.1178985560
 H          0.6274850118       -0.3126660674        1.3580950668
 N          2.6508798605        1.2160678084        1.9517218396
 S          1.5355869144        2.2879480276        1.3225421862
 O          2.0012589427        3.5870421847        1.7648710188
 O          0.2014917646        1.9325344632        1.7376023308
 C          1.6824934301        2.1797337838       -0.4509855526
 C          0.5328571938        2.1413379437       -1.2090304380
 C          0.6343679103        2.0833955511       -2.5888337919
 C          1.8842871544        2.0628428410       -3.1844252924
 C          3.0331663100        2.1086390402       -2.4102363710
 C          2.9358140803        2.1718183652       -1.0303477338
 H          3.8151956523        2.2148754758       -0.4087806802
 H          4.0043706401        2.0900873843       -2.8781475751
 H          1.9619841162        2.0053447303       -4.2586241445
 H         -0.2606781191        2.0342190459       -3.1881011490
 H         -0.4182963718        2.1408266396       -0.7014563092
 H          3.5382207922        1.6700001915        2.1146505195
 H          4.8854232104       -0.0974181281        1.3036588446
 H          4.9707014370       -2.3547440456        0.3116099598
 H          2.9015709116       -3.5792840744       -0.1765386849
 H         -0.0360962845       -3.1620367514        1.2629218103
 C          0.4350946162       -3.8924185291       -0.6924941674
 C          0.7961794809       -5.2715559519       -0.2295534586
 C         -0.6008711777       -4.9751020653       -0.6822801247
 H         -0.9373515631       -5.3772512809       -1.6260069029
 H         -1.3787155517       -4.9069074925        0.0645226121
 H          1.4191035751       -5.8824332961       -0.8655295690
 H          0.9631255852       -5.4182760146        0.8269544074
 H          0.8027414182       -3.5609033065       -1.6570745557
