  62
        -98.93761995
 C         -1.1674289725       -0.8523348367        0.6421733445
 C         -1.9196800423       -0.6254210834       -0.5343011773
 C         -2.9205177161        0.4582613126       -0.4770082867
 C         -3.0172042976        1.2183207014        0.6285017219
 C         -3.8955083138        2.4101719898        0.9484640840
 C         -5.1115397464        2.7399446353        0.0865941259
 C         -6.2427426151        1.7145127620        0.1554260774
 H         -7.0084068659        2.0031643931       -0.5678882672
 H         -6.6914165590        1.7590979468        1.1509790895
 C         -5.8358978982        0.2659399260       -0.1026477123
 H         -6.7340219967       -0.3524171279       -0.0233324732
 H         -5.1475633141       -0.0653258647        0.6775733396
 C         -5.2056901014       -0.0033110016       -1.4677839614
 H         -5.8658974573        0.3630795429       -2.2561549957
 H         -5.1185382859       -1.0871606841       -1.5814235082
 C         -3.8053707291        0.5980728487       -1.6820685254
 H         -3.8627290249        1.6376338981       -1.9966685053
 H         -3.3155592324        0.0414023137       -2.4866356088
 H         -4.8084095343        2.9057011185       -0.9431098690
 H         -5.5046929072        3.6908866856        0.4566196000
 H         -4.2189834773        2.2715374981        1.9852766497
 H         -3.2249779405        3.2772929476        0.9485506105
 O         -2.2018719417        1.0215239969        1.7065347667
 C         -1.2651784072        0.0048337533        1.7386374043
 O         -0.5825548919       -0.0274420707        2.7831579207
 H          0.9710433967        0.2957973039       -0.1967349617
 C          1.3167270750       -0.5528917763       -0.7668502095
 C          0.8262596439       -1.8173468874       -0.4681533863
 C          1.2457430352       -2.8896471831       -1.2437015407
 C          2.1289267482       -2.6878752765       -2.2910999423
 C          2.6274926708       -1.4292897768       -2.5734647988
 C          2.2097248981       -0.3486909794       -1.8040820845
 N          2.6801061860        0.9490256281       -2.0523132306
 S          2.8614662633        2.0267209106       -0.7904627202
 O          1.5790872790        2.5310198929       -0.3641496920
 O          3.7865079707        3.0160964754       -1.3019578287
 C          3.6463263837        1.0914509273        0.5112693220
 C          4.9374492118        0.6527874054        0.2863548547
 C          5.5689804064       -0.1068939129        1.2566283598
 C          4.9003362871       -0.4189858095        2.4310063508
 C          3.6079817261        0.0331881195        2.6448905838
 C          2.9720632964        0.7970978354        1.6783065212
 H          1.9641148403        1.1554110988        1.8224600009
 H          3.0790869608       -0.2059708110        3.5539812305
 H          5.3881091597       -1.0153965614        3.1857099994
 H          6.5761706942       -0.4552719705        1.0947874961
 H          5.4283193512        0.9253552106       -0.6336509843
 H          3.4223863199        1.0195760984       -2.7318557041
 H          3.3190910880       -1.2778110729       -3.3877487669
 H          2.4393708853       -3.5274890509       -2.8942275392
 H          0.8679063288       -3.8787849415       -1.0443856583
 C         -0.1016339632       -1.9313848080        0.7176647272
 H          0.4901961251       -1.6701439457        1.6117011683
 C         -0.6311553423       -3.3389242489        0.9509296552
 C         -2.0051260522       -3.5721250060        1.5035561250
 C         -1.6918048802       -3.9538405905        0.0896852754
 H         -1.6112764603       -5.0043959638       -0.1493158782
 H         -2.0938157929       -3.3504550302       -0.7079479053
 H         -2.6304221974       -2.7067593063        1.6715785423
 H         -2.1379149399       -4.3552955213        2.2351265033
 H          0.1446839287       -4.0064158750        1.3131286197
 O         -1.7731190248       -1.2843716839       -1.5958787077
