  62
        -98.93254924
 C          1.9358408263        0.7067645994        0.5448252041
 C          2.8760090826        0.7673970947       -0.5114659705
 C          3.8758658039       -0.3200246356       -0.5604163765
 C          3.8305420724       -1.3139704399        0.3443954151
 C          4.6863637608       -2.5529185296        0.5067643812
 C          6.0438044925       -2.6621888947       -0.1838908325
 C          7.0988112883       -1.6730609793        0.3094975311
 H          7.3685978068       -1.9332781498        1.3362337943
 H          7.9915783796       -1.7922577690       -0.3085169365
 C          6.6823976671       -0.2041669610        0.3000264791
 H          5.8679608808       -0.0490638292        1.0108402296
 H          7.5326439019        0.3860154428        0.6530206401
 C          6.2653326393        0.3491959887       -1.0616095246
 H          7.0527105431        0.1572335653       -1.7930300607
 H          6.1634028796        1.4328631687       -0.9576643492
 C          4.9343821138       -0.1885339253       -1.6172206667
 H          4.5551779341        0.5359681084       -2.3437436734
 H          5.0743068122       -1.1318835721       -2.1394607773
 H          6.4157772943       -3.6696309918        0.0222666324
 H          5.9276937763       -2.5845929946       -1.2608679014
 H          4.8244438780       -2.6762473195        1.5856246321
 H          4.0639690403       -3.3923660143        0.1776585947
 O          2.8648001717       -1.3604771505        1.3093891802
 C          1.9192810828       -0.3622410923        1.4423094978
 O          1.1259053601       -0.5317557907        2.3909023448
 H         -1.6211681053        1.6648894564        1.7773365042
 C         -1.6026755116        1.4651756297        0.7146162655
 C         -0.3898984067        1.4669866529        0.0422482245
 C         -0.3796363237        1.1763141161       -1.3183537300
 C         -1.5621697518        0.9152750762       -1.9865504131
 C         -2.7736330712        0.9322308942       -1.3166500780
 C         -2.7918892607        1.2005862470        0.0456598942
 N         -4.0083633045        1.2155840702        0.7408271174
 S         -5.2358625894        0.1681702907        0.3165208491
 O         -5.9262778614        0.6729487382       -0.8442941210
 O         -6.0347527549        0.0309475822        1.5136064277
 C         -4.4510572316       -1.3838767503       -0.0851788780
 C         -4.7585386850       -2.0093983436       -1.2766129132
 C         -4.1521727349       -3.2186180556       -1.5763777599
 C         -3.2493374374       -3.7770234145       -0.6849477069
 C         -2.9512734652       -3.1370546557        0.5084992064
 C         -3.5584939702       -1.9301469690        0.8154628002
 H         -3.3420026672       -1.4163380138        1.7384290008
 H         -2.2443772709       -3.5675204243        1.2000013554
 H         -2.7737442800       -4.7162523722       -0.9195734861
 H         -4.3829052925       -3.7192084621       -2.5029291076
 H         -5.4611840410       -1.5363536787       -1.9435570410
 H         -3.9239696511        1.3187315358        1.7406866319
 H         -3.7024716608        0.7523146979       -1.8329112584
 H         -1.5429111637        0.7000718391       -3.0440850726
 H          0.5626099241        1.1688791619       -1.8448967674
 C          0.8816948921        1.7732338966        0.7904590649
 H          0.6528564006        1.7031989698        1.8661389686
 C          1.3909350566        3.1857772399        0.5348376036
 C          0.9376149900        4.0412569622       -0.6054142065
 C          0.4918530748        4.3599514644        0.7880021850
 H          0.9004650461        5.2293868496        1.2804576358
 H         -0.5374905616        4.1521220990        1.0402829270
 H          1.6737783610        4.6745029290       -1.0762891260
 H          0.2113169515        3.6368871136       -1.2923668682
 H          2.4284250751        3.2981189895        0.8327833811
 O          2.9004056468        1.6702333865       -1.3850977433
