  62
        -98.93958683
 C         -2.4396100858       -1.0615301440       -0.4657529659
 C         -3.7059757658       -1.1003064619        0.1705985300
 C         -4.6933244086       -0.1238509514       -0.3003775392
 C         -4.3676423912        0.7300928709       -1.2877631163
 C         -5.2691283724        1.7737074006       -1.8894057128
 C         -5.3096232578        3.0904803889       -1.1018848887
 C         -6.0724614960        3.0328682484        0.2221537258
 H         -6.2071346881        4.0626299701        0.5590942435
 H         -7.0646015126        2.6140566655        0.0508554724
 C         -5.3617637426        2.2414824756        1.3291293047
 H         -4.3075053302        2.1166502733        1.0701680067
 H         -5.3950004991        2.8095152970        2.2616580573
 C         -5.9673395138        0.8671493851        1.6151071164
 H         -6.9810613847        0.9871068405        2.0037789814
 H         -5.3653871668        0.3827767113        2.3882567927
 C         -6.0177980345       -0.0673195745        0.3990958837
 H         -6.2516555017       -1.0751119331        0.7508053210
 H         -6.7990993488        0.2532363325       -0.2896139790
 H         -4.2841278119        3.4188983920       -0.9172005073
 H         -5.7881160749        3.8371519346       -1.7398233163
 H         -4.8798743069        1.9820008800       -2.8882523222
 H         -6.2791291915        1.3745599389       -1.9857442361
 O         -3.1461403959        0.7274947836       -1.8821746796
 C         -2.1449525477       -0.1430661289       -1.4735424792
 O         -1.0725450674       -0.0014233405       -2.0912536044
 O         -3.9973770804       -1.9154512700        1.0860126509
 C         -1.3670106983       -2.0215477502        0.0225988684
 C         -0.3352001991       -1.2201970340        0.7780538787
 C         -0.5957103495       -0.8594029449        2.0973796361
 C          0.3006088690       -0.0828055335        2.8069166601
 C          1.4699669093        0.3603813425        2.2138059685
 C          1.7361505768        0.0114787187        0.8966627796
 C          0.8438298941       -0.7877211533        0.1916393397
 H          1.0550491778       -1.0425495299       -0.8350061927
 N          2.9019622480        0.4896839495        0.2697558149
 S          4.3540208528        0.3791709415        1.1227979473
 O          4.5192996401       -0.9554073942        1.6561403841
 O          4.4025303648        1.4491855233        2.0876349901
 C          5.5331730702        0.6833199618       -0.1773754729
 C          6.1395463738       -0.3867562203       -0.8072238833
 C          7.0335469340       -0.1391624779       -1.8370665753
 C          7.3014278460        1.1666356859       -2.2195446981
 C          6.6855716652        2.2303202520       -1.5767973838
 C          5.7921403485        1.9898728072       -0.5451748768
 H          5.2975399202        2.7847948644       -0.0119774144
 H          6.8984027940        3.2441692180       -1.8753030068
 H          7.9965240771        1.3565162729       -3.0221014011
 H          7.5167801967       -0.9635350972       -2.3363399309
 H          5.9079369390       -1.3849050136       -0.4714029846
 H          3.0032842322        0.1188141917       -0.6652892743
 H          2.1780608067        0.9675732145        2.7542192031
 H          0.0878957799        0.1847920366        3.8313000986
 H         -1.5168909067       -1.1908537749        2.5565407391
 H         -1.8743748031       -2.6805266364        0.7402903259
 C         -0.7944234750       -2.8683455946       -1.0938912250
 C          0.0302538200       -4.0714728189       -0.7492330605
 C         -1.3426389916       -4.2433381140       -1.3244550919
 H         -1.4361917348       -4.5961287367       -2.3405666819
 H         -2.1321557529       -4.5832516796       -0.6704177795
 H          0.8812727811       -4.3098596688       -1.3687968232
 H          0.1744389626       -4.2917683220        0.2978783483
 H         -0.5157731389       -2.2954717697       -1.9696368342
