  62
        -98.94006617
 C         -1.7204463448       -1.1007932735        0.3076698528
 C         -2.0432517397        0.0161755914       -0.5020249842
 C         -3.4568689496        0.1309823603       -0.8996873047
 C         -4.3427962909       -0.7905939986       -0.4828237659
 C         -5.8149157480       -0.7628691045       -0.7730550146
 C         -6.5839790232       -0.0183877947        0.3273269624
 C         -5.9858355341        1.3417073333        0.6870017975
 H         -6.6271330331        1.7874653179        1.4504357609
 H         -5.0033118958        1.1914529789        1.1403718840
 C         -5.8522009346        2.3097406191       -0.4968359536
 H         -6.4926157352        1.9831945604       -1.3170419392
 H         -6.2030301675        3.2956159334       -0.1845969568
 C         -4.4226904334        2.4891973385       -1.0117618336
 H         -3.7573942384        2.7253577183       -0.1771247775
 H         -4.4105264819        3.3461530785       -1.6907647144
 C         -3.8322502073        1.2953130390       -1.7726237434
 H         -2.9026436602        1.6298379037       -2.2432010334
 H         -4.5217700091        0.9822330676       -2.5595539871
 H         -6.5886179556       -0.6386575754        1.2265392517
 H         -7.6166948628        0.1117087119       -0.0011189471
 H         -5.9809550604       -0.2832711257       -1.7357070053
 H         -6.1749816824       -1.7918836430       -0.8228787405
 O         -3.9990561100       -1.8393129350        0.3073360825
 C         -2.6924584681       -2.0095613916        0.7352850264
 O         -2.5256106667       -2.9900098431        1.4871352382
 O         -1.2109426478        0.8808322365       -0.8796952209
 C         -0.3054856578       -1.3471545742        0.8033795073
 C          0.3191345875       -0.0552199662        1.2687666543
 C         -0.2673921707        0.6236632872        2.3338667951
 C          0.2667275027        1.8119491177        2.7919961230
 C          1.4086560298        2.3369930792        2.2134364912
 C          2.0084956516        1.6620116535        1.1562496328
 C          1.4613987413        0.4741892310        0.6899295812
 H          1.9057409327       -0.0043916901       -0.1652119217
 N          3.1965401441        2.1449994620        0.6039051831
 S          3.9086023636        1.5768954145       -0.7844282376
 O          5.0755672581        2.4207403429       -0.9389954837
 O          3.0088851593        1.5467659084       -1.9127642861
 C          4.4239617932       -0.0763747924       -0.3654987588
 C          4.9587520131       -0.3201835694        0.8837843493
 C          5.3613202409       -1.6081312081        1.1992796303
 C          5.2274913262       -2.6244645698        0.2656266030
 C          4.6962672853       -2.3622248522       -0.9877012582
 C          4.2922251160       -1.0761022594       -1.3085461052
 H          3.8651442045       -0.8273534708       -2.2675479061
 H          4.5926787947       -3.1530124746       -1.7136237464
 H          5.5372158779       -3.6270365280        0.5153663030
 H          5.7750425520       -1.8163489004        2.1728372563
 H          5.0458967209        0.4903857948        1.5877857420
 H          3.4851321488        3.0717280483        0.8726179284
 H          1.8286174081        3.2646038700        2.5709680751
 H         -0.2074350340        2.3354772437        3.6087813503
 H         -1.1602710948        0.2128567724        2.7864234075
 H         -0.4238902623       -1.9973539529        1.6863505015
 C          0.5704777337       -2.1099714095       -0.1799395516
 C         -0.0194381636       -3.1122660331       -1.1250948613
 C          0.5491054545       -1.8303954310       -1.6511980598
 H          1.4825212027       -1.8646714475       -2.1934530297
 H         -0.1266977404       -1.0683086712       -2.0065655648
 H          0.5232301364       -4.0281011193       -1.3033775818
 H         -1.0927778376       -3.2347307007       -1.1217306302
 H          1.5335440809       -2.3675518222        0.2516828666
