  62
        -98.93707247
 C          1.8615364801        1.3876432777        0.3572925811
 C          2.6068077126        0.8539957850       -0.7212558243
 C          3.8177966375        0.1042051359       -0.3541039162
 C          4.1435005703       -0.0471780520        0.9420372147
 C          5.3689615565       -0.7294814236        1.4904703282
 C          5.4792966256       -2.2450978205        1.2353392847
 C          6.2840064064       -2.6189016108       -0.0156073482
 H          6.9715053815       -1.8045087794       -0.2472789232
 H          6.8983358365       -3.4927913025        0.2106500611
 C          5.4604760805       -2.9625116297       -1.2605954169
 H          5.0640097204       -3.9753530230       -1.1581321067
 H          6.1354593662       -2.9597779440       -2.1191647465
 C          4.2796867115       -2.0374688947       -1.5568101757
 H          3.4595511993       -2.2553456280       -0.8680160308
 H          3.9077206999       -2.2684455588       -2.5570494611
 C          4.6016703001       -0.5332958626       -1.4639573686
 H          5.6696364198       -0.3765616128       -1.3196170210
 H          4.2999172036       -0.0319599693       -2.3857382477
 H          5.9809674695       -2.6756324622        2.1035227728
 H          4.4814028188       -2.6809846600        1.1908762908
 H          6.2549252963       -0.2304238041        1.0914196255
 H          5.3428049805       -0.5512159421        2.5675064740
 O          3.3806706950        0.4591044980        1.9502661068
 C          2.2212457318        1.1686213287        1.6865004510
 O          1.6040523752        1.5431807762        2.7054695054
 O          2.2891934596        1.0014181465       -1.9292253726
 C          0.5968642734        2.1862181375        0.0917357805
 C         -0.4235342515        1.3026301664       -0.5846284822
 C         -1.0500981052        1.6191173191       -1.7816910007
 C         -1.9666253283        0.7462312446       -2.3444302102
 C         -2.2879614293       -0.4457532858       -1.7230578118
 C         -1.6826531732       -0.7611609879       -0.5121572096
 C         -0.7626133678        0.1113577892        0.0468781732
 H         -0.2869251129       -0.1367492789        0.9882451442
 N         -2.0230237154       -1.9569221942        0.1429365946
 S         -3.6455488481       -2.3591882238        0.2336404716
 O         -3.7742154993       -3.1468846906        1.4398272728
 O         -4.0513791115       -3.0107683187       -0.9868237775
 C         -4.5095358502       -0.8067390579        0.4022108781
 C         -4.1923421748        0.0034310424        1.4745901542
 C         -4.8318433475        1.2254933897        1.6031981048
 C         -5.7738124938        1.6143660786        0.6627973073
 C         -6.0861112622        0.7867907482       -0.4042486261
 C         -5.4473581420       -0.4355032578       -0.5395558952
 H         -5.6557256231       -1.1077391494       -1.3558701066
 H         -6.8204730233        1.0906740122       -1.1325471224
 H         -6.2666024035        2.5683031827        0.7645976324
 H         -4.5893480055        1.8697240612        2.4331951012
 H         -3.4580867641       -0.3271851053        2.1921494122
 H         -1.5634058619       -2.0826320868        1.0324479382
 H         -2.9876972401       -1.1415875222       -2.1568220134
 H         -2.4356070910        0.9976295626       -3.2832304499
 H         -0.8125436374        2.5426123352       -2.2824822860
 H          0.2012625189        2.4596223183        1.0806771367
 C          0.9154109329        3.4534974011       -0.6718752541
 C          0.0104447268        4.6422275532       -0.5579333562
 C          1.3610959066        4.6636540399        0.0905867102
 H          2.1315461466        5.2874510071       -0.3371528302
 H          1.4163924175        4.5805636906        1.1665597334
 H         -0.1465844916        5.2570703206       -1.4310751919
 H         -0.8556101641        4.5509118010        0.0797718204
 H          1.3937230735        3.2595708287       -1.6244754984
