  62
        -98.94477420
 C         -1.8468392048       -0.4209117878       -0.6282991705
 C         -2.8696751383       -1.2754911045       -0.1519319603
 C         -4.2387207589       -0.7636233362       -0.2754888563
 C         -4.4525453566        0.4405276710       -0.8366260246
 C         -5.7930654179        1.0881887935       -1.0557460412
 C         -6.3325335006        1.8381126929        0.1700635343
 C         -6.8227828159        0.9485996129        1.3133168079
 H         -7.3696254309        1.5907724348        2.0066107262
 H         -7.5291298890        0.2148173229        0.9238011973
 C         -5.7037417055        0.2321827241        2.0819927227
 H         -5.8779905046        0.3316634188        3.1557697974
 H         -4.7480191581        0.7158099030        1.8668301066
 C         -5.5825670313       -1.2612341334        1.7786202335
 H         -4.7379493761       -1.6592882354        2.3467240684
 H         -6.4854797654       -1.7772352958        2.1122888720
 C         -5.3525232929       -1.5874668384        0.2970671285
 H         -5.0630693798       -2.6381670068        0.2178910412
 H         -6.2706537143       -1.4337903426       -0.2693659239
 H         -5.5538319955        2.5100997910        0.5384703615
 H         -7.1696501515        2.4535909876       -0.1674186378
 H         -6.5166685835        0.3360677603       -1.3714523529
 H         -5.6612416926        1.8065413146       -1.8677497849
 O         -3.4423456140        1.2234512145       -1.3013457002
 C         -2.1168615328        0.8257956510       -1.1923536084
 O         -1.2962510843        1.6539106292       -1.6312173290
 O         -2.6481130100       -2.4083724482        0.3532130327
 C         -0.4025514198       -0.8783219346       -0.5251441055
 C          0.3924148785        0.1098726599        0.2902831693
 C         -0.0973233088        0.4867772889        1.5395796178
 C          0.5717429094        1.4136094551        2.3129275249
 C          1.7537533578        1.9770469940        1.8635968620
 C          2.2578320773        1.6001008118        0.6259419897
 C          1.5843289608        0.6631409010       -0.1487434470
 H          1.9935794207        0.4023052903       -1.1100314343
 N          3.4515991792        2.1583579983        0.1445182995
 S          4.5664539044        1.1865614727       -0.6290248874
 O          5.8228910257        1.8897080707       -0.4810503103
 O          4.1543555272        0.9146719371       -1.9823981697
 C          4.5938918349       -0.3223752585        0.3229769085
 C          4.2851075278       -1.5222191009       -0.2823707252
 C          4.2884111200       -2.6793951357        0.4806184314
 C          4.5949718624       -2.6152405908        1.8305886983
 C          4.9086528725       -1.4017300466        2.4240366773
 C          4.9096392482       -0.2429330118        1.6654314993
 H          5.1600792120        0.7136035136        2.0943691176
 H          5.1501768247       -1.3561413429        3.4737595804
 H          4.5915380250       -3.5166042036        2.4230049224
 H          4.0495326939       -3.6243326351        0.0188568115
 H          4.0470809805       -1.5269227995       -1.3333483107
 H          3.8963549549        2.8119758745        0.7717244336
 H          2.2742710918        2.7108151956        2.4600319737
 H          0.1731204257        1.7011944491        3.2741073205
 H         -1.0223320712        0.0485590177        1.8888905414
 H         -0.4379683786       -1.8307859271        0.0245981630
 C          0.1614439956       -1.1352345240       -1.9059624232
 C          1.2206815771       -2.1745649629       -2.1104969977
 C         -0.1757791747       -2.4234742237       -2.5934355510
 H         -0.3686075795       -2.4063480360       -3.6556967598
 H         -0.7880250763       -3.1281726097       -2.0497996437
 H          1.9895645216       -1.9833629620       -2.8444226436
 H          1.5584605003       -2.7177547939       -1.2411848769
 H          0.1980781575       -0.2397013800       -2.5169503393
