  62
        -98.94279742
 C         -2.6904344435       -1.2140093929        0.1873997432
 C         -2.6686136980       -0.2922598409       -0.8870584685
 C         -3.7801670030        0.6698021668       -0.9259969126
 C         -4.7367616994        0.6141182184        0.0182386334
 C         -5.8895844278        1.5683866259        0.1294660717
 C         -5.5374073044        2.7597539747        1.0314679024
 C         -4.2024375682        3.4213715396        0.6888783400
 H         -4.0747858482        4.2662547310        1.3690632950
 H         -3.3918374907        2.7183609683        0.8948350797
 C         -4.0903025062        3.9115662266       -0.7615124620
 H         -5.0840975223        3.9903585720       -1.2038072404
 H         -3.6560333737        4.9135053105       -0.7595519427
 C         -3.2044037875        3.0440137289       -1.6576167001
 H         -3.0191962698        3.5920175060       -2.5853391187
 H         -2.2376588499        2.8833517410       -1.1734406189
 C         -3.7822756784        1.6761562620       -2.0421075005
 H         -4.7882963287        1.8013347549       -2.4475858490
 H         -3.1452231757        1.2551116858       -2.8254338342
 H         -6.3398475526        3.4961456801        0.9591980803
 H         -5.4900456864        2.4089769555        2.0649972181
 H         -6.1618009490        1.9190668508       -0.8640560265
 H         -6.7376792587        1.0348354970        0.5618514432
 O         -4.7337140006       -0.2995044219        1.0226140968
 C         -3.7066999341       -1.2193582325        1.1442090400
 O         -3.8106831123       -1.9796479162        2.1279622297
 O         -1.7742636345       -0.2687256452       -1.7724666141
 C         -1.5733610013       -2.2313674069        0.3542940124
 C         -0.2864164134       -1.4897585401        0.6232797477
 C         -0.1424008588       -0.8311242460        1.8421891065
 C          1.0022544968       -0.1119479261        2.1257324021
 C          2.0254036441       -0.0250156213        1.1967965130
 C          1.8926965655       -0.6780530825       -0.0201619156
 C          0.7456414711       -1.4132592786       -0.2969380060
 H          0.6550894769       -1.9097166864       -1.2501034825
 N          2.9150126114       -0.5755629432       -0.9759611773
 S          4.5062440487       -0.8048174456       -0.5067580639
 O          5.2024708424       -1.1968724896       -1.7127561332
 O          4.6033386859       -1.7128904354        0.6127194726
 C          5.0542232607        0.8192614259       -0.0241042077
 C          4.8845028952        1.8582697465       -0.9180342929
 C          5.3175608087        3.1252129281       -0.5610861397
 C          5.9129365331        3.3302337451        0.6747908784
 C          6.0794781394        2.2760116891        1.5596397157
 C          5.6471163677        1.0063863227        1.2091435326
 H          5.7501851950        0.1583595277        1.8673978818
 H          6.5427495097        2.4373081525        2.5198018824
 H          6.2488366257        4.3176377431        0.9496745768
 H          5.1888225604        3.9476923610       -1.2462296672
 H          4.4190125202        1.6584480591       -1.8688525156
 H          2.7123443156       -1.0413019341       -1.8480935455
 H          2.9188828940        0.5391906826        1.4086568988
 H          1.0995348853        0.3905221131        3.0762226973
 H         -0.9474928748       -0.8910438117        2.5623788774
 H         -1.8239781889       -2.8102492050        1.2539700941
 C         -1.5116656541       -3.1747476081       -0.8279632104
 C         -0.7866932941       -4.4794776407       -0.6960066302
 C         -2.2830329059       -4.4575569453       -0.7769952297
 H         -2.7561725944       -4.8104954127       -1.6810606197
 H         -2.8482184018       -4.6641685958        0.1201853743
 H         -0.2319381944       -4.8519971937       -1.5440398745
 H         -0.3322106636       -4.7029193592        0.2575896172
 H         -1.4688776050       -2.6609631464       -1.7808092732
