  62
        -98.94373939
 C         -1.5076910806       -1.5856272793       -0.0871013292
 C         -1.3689542906       -0.2591298591        0.3935604302
 C         -2.6211427706        0.4098476811        0.7869216900
 C         -3.7806629506       -0.2688789489        0.7402339703
 C         -5.1280386906        0.3065079512        1.0656281101
 C         -5.8045451006        0.8785894107       -0.1879581701
 C         -4.9044324406        1.8045891604       -1.0060712505
 H         -4.0804169406        1.2221200102       -1.4246523203
 H         -5.4960832606        2.1727252201       -1.8471439306
 C         -4.3363946506        2.9941969607       -0.2196721510
 H         -4.4374181406        3.8950470505       -0.8287234113
 H         -4.9209255106        3.1503824211        0.6876870090
 C         -2.8560872006        2.8663214809        0.1454812790
 H         -2.5125459306        3.8420129710        0.4980916086
 H         -2.2795753306        2.6168626905       -0.7485037709
 C         -2.5205982506        1.8406511813        1.2353271394
 H         -3.1482717605        2.0152152916        2.1113992494
 H         -1.4749588705        1.9873925414        1.5217151793
 H         -6.7020557806        1.4184516509        0.1195759397
 H         -6.1114305306        0.0467145305       -0.8264451298
 H         -5.7528956006       -0.4898623586        1.4736094704
 H         -5.0130417205        1.0853096615        1.8169475798
 O         -3.8625001406       -1.5655929891        0.3444123108
 C         -2.7372617006       -2.2490252292       -0.0863648189
 O         -2.9559618606       -3.4294221894       -0.4262890084
 O         -0.2727306806        0.3458995110        0.4948106700
 C         -0.3087856606       -2.3849928895       -0.5686809389
 C          0.8443272994       -2.2057476791        0.3863407910
 C          0.7252833194       -2.7096539286        1.6790356212
 C          1.7455654694       -2.5490936482        2.5960356311
 C          2.9029761094       -1.8766056884        2.2452646208
 C          3.0316947994       -1.3723471889        0.9567188806
 C          2.0104537294       -1.5464235192        0.0333457707
 H          2.1326479294       -1.1390571696       -0.9555014595
 N          4.2002867694       -0.7022816790        0.5710147903
 S          4.1795509794        0.5198461405       -0.5627914902
 O          3.9861032994       -0.0289475900       -1.8825587000
 O          5.4404021294        1.2034506406       -0.3538417105
 C          2.8462699794        1.6266444307       -0.1446774306
 C          1.9878958894        2.0518469503       -1.1354059408
 C          0.9979010594        2.9662604404       -0.8183756611
 C          0.8831692194        3.4354355509        0.4791376587
 C          1.7503134095        2.9942681113        1.4653828889
 C          2.7450418894        2.0837792312        1.1529965292
 H          3.4362757795        1.7289273815        1.9004551293
 H          1.6502790995        3.3536131817        2.4774120587
 H          0.1083914395        4.1451700311        0.7240344584
 H          0.3160250094        3.3041152601       -1.5830894812
 H          2.1054093994        1.6547869199       -2.1311669806
 H          4.8571602694       -0.5163819588        1.3137879002
 H          3.6994476095       -1.7430480581        2.9614026707
 H          1.6377876595       -2.9434185478        3.5953500512
 H         -0.1862705506       -3.2219370584        1.9569361714
 H         -0.6279147606       -3.4393627394       -0.5208771485
 C          0.0721826093       -2.1102309500       -2.0158026491
 C         -0.9717850807       -1.7793637104       -3.0389233592
 C          0.0172936493       -0.7380023003       -2.6136353196
 H          0.7975857193       -0.4554492406       -3.3060642897
 H         -0.3195418307        0.0689428200       -1.9821562999
 H         -0.8789220707       -2.2091569008       -4.0250038790
 H         -1.9928577107       -1.6874873703       -2.6975666292
 H          0.8842835693       -2.7503671002       -2.3484795088
