  62
        -98.93894431
 C          0.5907144503        1.6554930850        0.7241016921
 C          1.4844953312        1.7887561405       -0.3643449254
 C          2.7054604697        0.9683278975       -0.3003490821
 C          2.8739563313        0.1200013461        0.7302425198
 C          4.0287669576       -0.8267722052        0.9004846411
 C          3.8745681801       -2.0405996509       -0.0370845013
 C          4.9452994863       -2.1426709825       -1.1233448762
 H          5.8780557094       -2.4886814302       -0.6730570242
 H          4.6193731832       -2.9056578518       -1.8332021169
 C          5.2446327509       -0.8493848557       -1.8861186507
 H          5.8049552409       -1.1279320418       -2.7811901868
 H          5.9048866439       -0.2162985953       -1.2913761112
 C          4.0214185146       -0.0244608025       -2.3060101209
 H          4.2082234876        0.3764886452       -3.3043822717
 H          3.1353064359       -0.6551071458       -2.3785015886
 C          3.7181730093        1.1772274722       -1.3925955852
 H          4.6503706367        1.5469702783       -0.9556961175
 H          3.3015505496        1.9824150329       -2.0051961839
 H          2.8867329563       -1.9906742869       -0.4982083386
 H          3.9057474395       -2.9584220637        0.5506659709
 H          4.9605415488       -0.3028697015        0.6968076688
 H          4.0312367031       -1.1478219335        1.9421320521
 O          1.9625907865       -0.0194246045        1.7291483004
 C          0.8125531505        0.7509756126        1.7619418615
 O          0.0787138648        0.5411844482        2.7488357847
 H         -1.4819688153        0.0011291727        0.2580994573
 C         -1.8724151391        0.6794212472       -0.4870673308
 C         -1.5726539157        2.0332007901       -0.3908084821
 C         -2.0831228979        2.8979024681       -1.3487800809
 C         -2.8640503287        2.4089161296       -2.3824135523
 C         -3.1662351249        1.0627267834       -2.4698716563
 C         -2.6673524880        0.1893484398       -1.5089816179
 N         -2.9373482878       -1.1861602739       -1.5673879858
 S         -3.2181556188       -2.0346521442       -0.1518442661
 O         -3.9323341590       -3.2182838246       -0.5843160511
 O         -3.8909197754       -1.2170236344        0.8305277025
 C         -1.6092909295       -2.5261700337        0.4259131701
 C         -0.7624951333       -3.1665124706       -0.4576198198
 C          0.4708433077       -3.6022433761       -0.0024180011
 C          0.8330868290       -3.3932892253        1.3202515361
 C         -0.0267160723       -2.7474129177        2.1931923772
 C         -1.2626773252       -2.3106360872        1.7441639495
 H         -1.9508280096       -1.7897411222        2.3912023010
 H          0.2599657806       -2.5649746795        3.2162426901
 H          1.7927127776       -3.7336724654        1.6752558976
 H          1.1457780670       -4.1048721955       -0.6769343047
 H         -1.0819546026       -3.3131925585       -1.4761249286
 H         -3.5661613395       -1.4674890332       -2.3056176167
 H         -3.7799443989        0.6858896427       -3.2739647993
 H         -3.2483669724        3.0885741840       -3.1279095136
 H         -1.8629407906        3.9510613512       -1.2936545446
 C         -0.6942063522        2.4652876828        0.7587459558
 H         -1.2057172044        2.1839315258        1.6912366705
 C         -0.4036562762        3.9500203041        0.7902498350
 C         -1.4119808847        4.8964253040        1.3668718348
 C         -0.1423170344        4.6098097103        2.1094224242
 H          0.6120277980        5.3805412367        2.1601283077
 H         -0.1941684140        3.9912032857        2.9938821214
 H         -2.3294103508        4.4755325001        1.7504536336
 H         -1.5296605399        5.8676484521        0.9105462435
 H          0.1839098337        4.2805699883       -0.0578076168
 O          1.2846666263        2.5617734548       -1.3375873146
