  62
        -98.94104834
 C         -1.6738624703       -1.4765452603       -0.0620061896
 C         -2.7910318903       -0.8304031703        0.5179280603
 C         -3.2264861404        0.4339968896       -0.0969271599
 C         -2.5383562605        0.9308866495       -1.1413989400
 C         -2.7544304206        2.1764771193       -1.9748851202
 C         -3.6590470507        3.3002699293       -1.4771603203
 C         -3.1448235007        4.0312938395       -0.2376839704
 H         -2.2482915607        4.5939112996       -0.5106691805
 H         -3.9071340407        4.7486454295        0.0755328495
 C         -2.7808327406        3.1453485198        0.9518823697
 H         -1.9275431906        2.5110363798        0.6972967098
 H         -2.4485875106        3.7990166299        1.7640621096
 C         -3.9167935605        2.2771594997        1.4916402099
 H         -3.5671521605        1.8281234299        2.4255610299
 H         -4.7794367806        2.9052243697        1.7243908598
 C         -4.3752322905        1.1314219896        0.5720731900
 H         -4.8728066904        0.3803299396        1.1928647202
 H         -5.0964987205        1.4781503894       -0.1643278600
 H         -3.7214185307        4.0313641792       -2.2880124004
 H         -4.6658617206        2.9294719293       -1.3084508002
 H         -1.7532601606        2.5801616494       -2.1574333102
 H         -3.1327388606        1.8296263391       -2.9432474601
 O         -1.4700883904        0.2721992795       -1.6708942599
 C         -0.9800823103       -0.9005184104       -1.1250044197
 O          0.0523263597       -1.3197462404       -1.6833362797
 O         -3.4014726603       -1.2901312902        1.5220492504
 C         -1.1296373602       -2.7175163902        0.6254666905
 C          0.3464813998       -2.5222690700        0.8694996705
 C          1.3301089299       -3.4381515200        0.5220944806
 C          2.6670941099       -3.1462110399        0.7368869805
 C          3.0520473498       -1.9289360698        1.2677077203
 C          2.0728648597       -1.0075977698        1.6214420302
 C          0.7366872497       -1.3251366899        1.4585256803
 H         -0.0109647803       -0.5984941699        1.7433964602
 N          2.3953472396        0.2729225503        2.1223836800
 S          2.0183591595        1.5655088701        1.1177224898
 O          2.4134543695        2.7468359403        1.8557639896
 O          0.6374749495        1.4953040400        0.7184150099
 C          3.1113002595        1.3574351100       -0.2773650302
 C          4.2987521295        2.0651095901       -0.2915908003
 C          5.1919606394        1.8590237600       -1.3298330203
 C          4.8884899695        0.9436696798       -2.3268956402
 C          3.6955722495        0.2386586797       -2.2943802600
 C          2.7930970395        0.4420745298       -1.2603998600
 H          1.8565284996       -0.0936105102       -1.2221750099
 H          3.4522233096       -0.4748521804       -3.0652973399
 H          5.5841815095        0.7787690697       -3.1345246002
 H          6.1190121794        2.4087155401       -1.3573634904
 H          4.4881929094        2.7674015702        0.5042937296
 H          3.3586985196        0.3624505504        2.4174004000
 H          4.0960391498       -1.6870807397        1.3999885603
 H          3.4208609699       -3.8674882799        0.4603460906
 H          1.0542812699       -4.3723934801        0.0612327807
 H         -1.6373107101       -2.7279213901        1.6052621206
 C         -1.4727407201       -4.0338421403       -0.0541193693
 C         -2.6460351401       -4.1412969605       -0.9805890692
 C         -1.2534117301       -4.2582928305       -1.5192632692
 H         -0.9116083200       -5.2307400905       -1.8424470591
 H         -0.8523231002       -3.4378558306       -2.0924790494
 H         -3.2588811000       -5.0289245406       -0.9313738291
 H         -3.2006664202       -3.2378710106       -1.1904581393
 H         -1.3023709900       -4.8842372202        0.5991070509
