  62
        -98.93860328
 C          2.0948388897        0.9700326794       -0.0088355592
 C          2.8175480994        0.2531197891        0.9718377908
 C          3.4974621092       -0.9729111910        0.5214926806
 C          3.3651635893       -1.3660677107       -0.7571355195
 C          3.9232802891       -2.5984377207       -1.4249086596
 C          5.3645141690       -3.0003138010       -1.0850700195
 C          6.3179062892       -1.8262314313       -0.8187736492
 H          5.8447394394       -0.8873262211       -1.1113143591
 H          7.2105500192       -1.9474097914       -1.4350401291
 C          6.7636878590       -1.7393253717        0.6427089909
 H          7.6831711491       -1.1515491319        0.6950799511
 H          6.9978376788       -2.7451989618        0.9979044407
 C          5.7594277290       -1.0932644216        1.5961444709
 H          5.6863637093       -0.0225922816        1.3870253611
 H          6.1465871689       -1.1955827219        2.6127139109
 C          4.3362356189       -1.6735554713        1.5518837406
 H          3.8605764689       -1.4699597214        2.5153798506
 H          4.3523250887       -2.7494390513        1.3953131604
 H          5.7337140890       -3.5866260310       -1.9282334696
 H          5.3642129287       -3.6621334512       -0.2201941797
 H          3.2545616589       -3.4358240206       -1.2031970699
 H          3.8414104293       -2.4003155905       -2.4964925896
 O          2.6257710695       -0.6629745404       -1.6619017594
 C          1.9766755697        0.5132773997       -1.3207954893
 O          1.3475079200        1.0423405400       -2.2557497993
 H         -0.0771655806        0.2586421796        1.3694372204
 C         -0.6977377804        0.9309905898        0.7885792405
 C         -0.1140287901        2.0479284098        0.2016831407
 C         -0.9195289999        2.9012325401       -0.5392972192
 C         -2.2671220899        2.6265503305       -0.7009526894
 C         -2.8398738402        1.5077209505       -0.1251808797
 C         -2.0446287705        0.6526695102        0.6272108202
 N         -2.6212709708       -0.4874858798        1.2246561200
 S         -3.3329551609       -1.5970554895        0.1777656397
 O         -3.3071444112       -2.8573911096        0.8892483994
 O         -2.7020429707       -1.5808525994       -1.1224891403
 C         -5.0179778508       -1.0369471691        0.0510342396
 C         -5.5480720105       -0.7290685988       -1.1864462804
 C         -6.8641890504       -0.2999977085       -1.2629326905
 C         -7.6215272906       -0.1870179086       -0.1070330206
 C         -7.0742152808       -0.5019617189        1.1280360794
 C         -5.7600401509       -0.9333499492        1.2115475095
 H         -5.2973477910       -1.1925309395        2.1490658495
 H         -7.6663458509       -0.4124003389        2.0244311994
 H         -8.6446301505        0.1485341317       -0.1694534207
 H         -7.2909446403       -0.0548496382       -2.2222274805
 H         -4.9174229804       -0.8254071987       -2.0559618504
 H         -1.9843130910       -0.9715456501        1.8424778899
 H         -3.8872468702        1.2887713407       -0.2546308699
 H         -2.8797575497        3.2935117507       -1.2880215694
 H         -0.4904740696        3.7738391101       -1.0032517290
 C          1.3700117999        2.2430865695        0.3919290510
 H          1.5644360598        2.3630449893        1.4681228010
 C          1.9336476002        3.4397154795       -0.3430463687
 C          1.8342749904        4.8075887394        0.2611803015
 C          3.1590886703        4.1104862192        0.1989794615
 H          3.9010841605        4.4689896591       -0.4985714983
 H          3.5759306901        3.7176899489        1.1150376215
 H          1.3526597503        4.8941246693        1.2232652615
 H          1.6686300807        5.6496575896       -0.3934246384
 H          1.8512355403        3.3446231797       -1.4198077988
 O          2.8798220393        0.6120333888        2.1793421808
