  62
        -98.93896774
 C          1.7979402398        0.1054408503        0.0026847304
 C          2.8124173399        0.8640497505        0.6295864300
 C          4.1617417899        0.2734857006        0.6490064002
 C          4.3638320098       -0.9289393797        0.0781679607
 C          5.6074164098       -1.7884282397       -0.0151180390
 C          6.9877354899       -1.2015480896        0.2694863707
 C          7.4595376898       -0.1553640600       -0.7393980297
 H          8.4099283098        0.2524460502       -0.3880274099
 H          7.6439667998       -0.6520913803       -1.6953502895
 C          6.4903275198        0.9956558299       -0.9974326302
 H          5.5766747198        0.6104801697       -1.4549535800
 H          6.9550270698        1.6668469296       -1.7248760604
 C          6.1192908798        1.8258331504        0.2299549095
 H          7.0269915498        2.1794660806        0.7226453294
 H          5.5665270098        2.7011636603       -0.1213170708
 C          5.2403042199        1.1120602608        1.2722151299
 H          5.8408194999        0.5176786411        1.9567295401
 H          4.7296674099        1.8776860411        1.8634780896
 H          7.6929644299       -2.0364169996        0.2326691610
 H          7.0272312599       -0.8011764191        1.2781805706
 H          5.4406714099       -2.6273115794        0.6698030014
 H          5.5997051998       -2.2109427001       -1.0248900488
 O          3.3487521798       -1.6268801999       -0.5119441190
 C          2.0535798598       -1.1383119999       -0.5708070691
 O          1.2468104698       -1.8920869002       -1.1472661588
 H         -2.0053756802       -0.3948873601       -0.9853829693
 C         -1.7393987002       -0.7277503397        0.0037105409
 C         -0.5713863101       -0.2931034395        0.6090777006
 C         -0.2680404101       -0.7607461790        1.8864728908
 C         -1.0950816801       -1.6619821087        2.5256331812
 C         -2.2533731301       -2.1065899090        1.9115997914
 C         -2.5727712001       -1.6370084695        0.6443627513
 N         -3.7391523901       -2.0711750898       -0.0005202385
 S         -4.6318183902       -1.0129760601       -0.9291813089
 O         -5.9634359402       -1.5809563702       -0.9405379486
 O         -4.0219944002       -0.8244509107       -2.2211159390
 C         -4.6349232202        0.5258569202       -0.0243737395
 C         -4.2954922102        1.6948402000       -0.6725044100
 C         -4.3014561602        2.8846124502        0.0382890795
 C         -4.6425438201        2.8835683808        1.3814357095
 C         -4.9873045201        1.7010224910        2.0182504300
 C         -4.9870304501        0.5100219908        1.3110968705
 H         -5.2592378401       -0.4217294191        1.7790949509
 H         -5.2544232701        1.7039067315        3.0626750100
 H         -4.6409703001        3.8095468310        1.9345678092
 H         -4.0376335302        3.8049063700       -0.4581419009
 H         -4.0297497802        1.6495441595       -1.7159345400
 H         -4.3242632301       -2.6911467496        0.5390726918
 H         -2.8969929100       -2.8199903888        2.4033240418
 H         -0.8391879900       -2.0222513883        3.5105840614
 H          0.6382549999       -0.4152921188        2.3648459306
 C          0.3872542398        0.6636192103       -0.0533445798
 H          0.4161240298        1.5894814505        0.5403077698
 C          0.0218825998        1.0121983597       -1.4802091999
 C         -0.9424004503        2.1225082395       -1.7659627803
 C          0.5164251197        2.3045984194       -2.0554338104
 H          0.8430973897        2.3201971790       -3.0844881705
 H          1.0918881898        2.9466526997       -1.4046591407
 H         -1.3620751102        2.6475866799       -0.9215280805
 H         -1.6184948103        2.0087313492       -2.6000888902
 H          0.0130464997        0.1460319994       -2.1333214696
 O          2.5991231599        1.9849122508        1.1652061796
