  62
        -98.93786082
 C         -2.5881097550       -1.1458484187        0.5149355424
 C         -3.4471494836       -0.8559238912       -0.5742444147
 C         -4.5898468697        0.0222970485       -0.2697633461
 C         -4.7578589524        0.4899294087        0.9794492428
 C         -5.8385353101        1.4403569556        1.4046551174
 C         -5.3754584270        2.8987182753        1.2799677324
 C         -4.7394694800        3.2318419192       -0.0696858800
 H         -4.4807383724        4.2927930210       -0.0538413411
 H         -3.8048135390        2.6751763445       -0.1704195567
 C         -5.6351354902        2.9419529281       -1.2822345282
 H         -6.6736748990        2.8497269679       -0.9622439771
 H         -5.5815412383        3.7903247721       -1.9677779390
 C         -5.2388404120        1.6986880183       -2.0806402650
 H         -5.7909246272        1.7103448496       -3.0242056281
 H         -4.1743862047        1.7438372572       -2.3239350826
 C         -5.5212220925        0.3521083895       -1.4025142078
 H         -5.3733083857       -0.4327782460       -2.1500749417
 H         -6.5604195605        0.3180356175       -1.0693404280
 H         -6.2353121299        3.5492818549        1.4499072756
 H         -4.6395479702        3.0961329768        2.0629053087
 H         -6.0863921856        1.2348162914        2.4474059482
 H         -6.7226947141        1.2750472852        0.7920836038
 O         -3.9178728420        0.1825299065        2.0012806660
 C         -2.8168567938       -0.6279383808        1.7927975803
 O         -2.1257420926       -0.8238016665        2.8137622683
 O         -3.2883389148       -1.2932819958       -1.7418605205
 C         -1.3561073857       -2.0277537617        0.3891832755
 C         -0.1632764412       -1.2074291619       -0.0299681329
 C         -0.1925782737       -0.4234948943       -1.1795055606
 C          0.9123530265        0.3229528952       -1.5455787460
 C          2.0622241788        0.3101606808       -0.7749463886
 C          2.1015166243       -0.4658546209        0.3751105044
 C          0.9920509549       -1.2199833806        0.7371424595
 H          1.0223762683       -1.8146229092        1.6407029979
 N          3.2594557719       -0.4685339394        1.1697913123
 S          4.7413500655       -0.7413795275        0.4284145686
 O          4.5905308675       -1.5431662183       -0.7633019490
 O          5.5880198484       -1.2837916124        1.4679575841
 C          5.3159344874        0.8887863109        0.0028083037
 C          5.4531062909        1.8159065301        1.0172198790
 C          5.9036194360        3.0883155765        0.7040974118
 C          6.2102202389        3.4093986845       -0.6099865467
 C          6.0714497075        2.4658889690       -1.6163845107
 C          5.6205844075        1.1913223396       -1.3098564311
 H          5.4938178658        0.4268833870       -2.0599992729
 H          6.3116187548        2.7171665646       -2.6370227144
 H          6.5600105106        4.4008264596       -0.8509892345
 H          6.0135672196        3.8244329187        1.4841233783
 H          5.2085093285        1.5256427597        2.0254554821
 H          3.1734153964       -1.0106588248        2.0172217743
 H          2.9237084573        0.8935982231       -1.0557205519
 H          0.8777259107        0.9252174289       -2.4408449679
 H         -1.0884281717       -0.4124606775       -1.7816605702
 H         -1.1625937486       -2.3920324259        1.4107561723
 C         -1.5830325979       -3.2533725348       -0.4859779683
 C         -0.9071627651       -3.4815276403       -1.8011141245
 C         -0.5047410478       -4.2899870937       -0.6069062793
 H         -0.7790114262       -5.3332240555       -0.5648647445
 H          0.4514961050       -4.0669389474       -0.1560212110
 H         -1.4835874466       -3.9548016484       -2.5811831958
 H         -0.2176483637       -2.7354221555       -2.1629848473
 H         -2.5997583298       -3.6234092572       -0.4029406232
