  62
        -98.94286433
 C          1.1139615704        1.4316741297        0.3369590921
 C          1.4205763608        0.5392804904       -0.7194774984
 C          2.4235530504       -0.4932846100       -0.4148976086
 C          2.9345521597       -0.5796768110        0.8256863417
 C          4.0131187793       -1.5344429715        1.2472241616
 C          5.4041716995       -0.9087160317        1.0701641628
 C          5.6268947204       -0.2735132207       -0.3025092467
 H          4.9638678006        0.5881580895       -0.4091796164
 H          6.6507694905        0.1062355091       -0.3220396758
 C          5.4128994008       -1.2264834599       -1.4869514474
 H          6.2314899412       -1.0912430495       -2.1970857369
 H          5.4520193004       -2.2603762401       -1.1423571181
 C          4.1117316013       -0.9979320891       -2.2587170680
 H          4.1630645517       -1.5716201884       -3.1879321984
 H          4.0287451317        0.0572409211       -2.5314753573
 C          2.8256455908       -1.4132555893       -1.5327064690
 H          2.0076953512       -1.3802470486       -2.2579394594
 H          2.9243956904       -2.4381806496       -1.1718085896
 H          6.1550025492       -1.6824868619        1.2403102226
 H          5.5361151392       -0.1350958522        1.8301716734
 H          3.9404583294       -2.4459424311        0.6570858309
 H          3.8691339686       -1.7767273722        2.3015771413
 O          2.5515761593        0.2381824984        1.8378245720
 C          1.6558051596        1.2678878787        1.6160758923
 O          1.4210507592        1.9657585681        2.6223279026
 O          0.9049633614        0.5884505513       -1.8668920986
 C          0.1792691907        2.6228518900        0.1782825624
 C         -1.2534278895        2.1887486402        0.3391878913
 C         -2.0583983199        2.7071974897        1.3456706212
 C         -3.3626217601        2.2676455999        1.5031441902
 C         -3.8880421098        1.3023223206        0.6624156693
 C         -3.0868678494        0.7760723211       -0.3425319607
 C         -1.7837795892        1.2193757609       -0.5025093796
 H         -1.1623607889        0.8069142214       -1.2842153596
 N         -3.6022231691       -0.2432615382       -1.1799368817
 S         -3.7541194399       -1.7318067387       -0.4277921528
 O         -4.1200612995       -2.6688935279       -1.4644383136
 O         -4.6790063404       -1.5972598793        0.6682487968
 C         -2.1256517203       -2.1164780395        0.1931611078
 C         -1.6907475308       -1.5101910104        1.3551778385
 C         -0.4110006011       -1.7808940110        1.8116683790
 C          0.4037081291       -2.6535066006        1.1074044888
 C         -0.0452145104       -3.2481717597       -0.0613256118
 C         -1.3186237101       -2.9712623291       -0.5299450123
 H         -1.7081757597       -3.4133375484       -1.4329725828
 H          0.5926587498       -3.9236629895       -0.6080242619
 H          1.3933403389       -2.8702360711        1.4764786492
 H         -0.0513946215       -1.3036761117        2.7103767195
 H         -2.3536671109       -0.8488919906        1.8895641586
 H         -3.0520311987       -0.3643992977       -2.0203169914
 H         -4.8925193500        0.9311147007        0.7838615685
 H         -3.9756613804        2.6792524894        2.2905125102
 H         -1.6509385801        3.4477501691        2.0184278320
 H          0.4213863604        3.2867808894        1.0221249530
 C          0.4401798816        3.3994788309       -1.1079250269
 C         -0.5994218378        3.6471931118       -2.1569857973
 C         -0.1452637780        4.7703747611       -1.2777705263
 H          0.4697511823        5.5500592713       -1.7010306054
 H         -0.8286735984        5.1127055407       -0.5150240364
 H         -0.2807743772        3.6329623225       -3.1883831771
 H         -1.5920199980        3.2534874319       -2.0041792581
 H          1.4539219117        3.2623402709       -1.4691999065
