  62
        -98.94075178
 C          2.0144312494        1.3411285306        0.3708828240
 C          2.4953653759        0.6383889687       -0.7619166584
 C          3.6964454508       -0.1844561863       -0.5424099027
 C          4.2514013694       -0.2387193929        0.6811168952
 C          5.4385982123       -1.0787070147        1.0512437023
 C          5.0030179352       -2.4605620892        1.5586573616
 C          3.9906066415       -3.1612731015        0.6521445782
 H          3.7796261667       -4.1380087551        1.0932844929
 H          3.0540506461       -2.5983526555        0.6586068921
 C          4.4579870913       -3.3459421560       -0.7984204106
 H          4.2179422337       -4.3627276508       -1.1164164771
 H          5.5416162830       -3.2363235295       -0.8549551535
 C          3.7999744684       -2.3985202910       -1.8034848249
 H          2.7133791069       -2.4363958790       -1.6875525303
 H          4.0323882582       -2.7570097942       -2.8098494535
 C          4.2422838722       -0.9317139431       -1.7264148212
 H          5.3324036881       -0.8738635740       -1.7515364609
 H          3.8491857088       -0.4218456426       -2.6108556579
 H          5.8914732080       -3.0855157802        1.6647703926
 H          4.5522485194       -2.3407492816        2.5466632994
 H          6.0862616651       -1.1861277988        0.1834311563
 H          5.9886617930       -0.5677157640        1.8433494404
 O          3.7499211173        0.4330405750        1.7490981445
 C          2.6124949081        1.2150637964        1.6269996033
 O          2.2313515438        1.7324557779        2.6963405159
 H         -0.2168620199       -0.1637190633        0.9383929503
 C         -0.7106902777        0.2269537487        0.0561847775
 C         -0.3227351585        1.4667745999       -0.4393669989
 C         -0.9661926538        1.9589431226       -1.5661836819
 C         -1.9508343467        1.2134975877       -2.1922130374
 C         -2.3186042228       -0.0280896169       -1.7093011772
 C         -1.6891870495       -0.5247975529       -0.5742845546
 N         -2.0625395251       -1.7815460684       -0.0679546028
 S         -3.6952227673       -2.1328110875        0.0338339416
 O         -3.8102803907       -3.0828203153        1.1183897660
 O         -4.1775037773       -2.5823653624       -1.2481823570
 C         -4.4802068181       -0.5898082015        0.4658568492
 C         -4.1072237258        0.0206789385        1.6470240119
 C         -4.6795159721        1.2365055041        1.9831440662
 C         -5.6109478276        1.8182619402        1.1364470445
 C         -5.9795751095        1.1898739767       -0.0426634992
 C         -5.4082465637       -0.0253816919       -0.3850677657
 H         -5.6631715244       -0.5467446601       -1.2932789283
 H         -6.7058774386        1.6434310919       -0.6975621844
 H         -6.0518824014        2.7665968439        1.4000159279
 H         -4.3941483074        1.7259351419        2.9005946831
 H         -3.3841498639       -0.4598728319        2.2868332562
 H         -1.5750552458       -2.0489556306        0.7739124520
 H         -3.0674337783       -0.6287362888       -2.1996601920
 H         -2.4334206938        1.6024200321       -3.0757220585
 H         -0.6779526481        2.9136183195       -1.9734319245
 C          0.7661286008        2.2049974088        0.3009081299
 H          0.4410418000        2.3139341311        1.3490925411
 C          1.0068550360        3.6135059342       -0.2213983132
 C          2.3427864134        4.2758452795       -0.0680176916
 C          1.8490796179        3.8912678049       -1.4287303765
 H          1.5379735924        4.6787103775       -2.0997382376
 H          2.3037732291        3.0491362110       -1.9251350890
 H          3.1425286319        3.6963996788        0.3705269759
 H          2.3686139613        5.3224978281        0.1959394220
 H          0.1398437898        4.2503872080       -0.0758997642
 O          1.9616770198        0.6842749095       -1.8992051424
