  62
        -98.94038272
 C          1.7785183857        0.6194575926        0.9978075869
 C          1.9829495961        0.3173113133       -0.3714257942
 C          3.3659816044        0.4561760050       -0.8567979883
 C          4.3318877277        0.8514361662       -0.0089416041
 C          5.7853976992        0.9792546391       -0.3597515216
 C          6.5404856511       -0.3265601351       -0.0746312903
 C          5.8603376526       -1.5705581619       -0.6465871393
 H          6.4973710635       -2.4261515425       -0.4117550871
 H          4.9101253369       -1.7271887534       -0.1306223686
 C          5.6108851215       -1.5188839368       -2.1603869274
 H          5.9021392502       -2.4772466216       -2.5955406116
 H          6.2414652750       -0.7529926826       -2.6134293769
 C          4.1531780379       -1.2747723976       -2.5556692289
 H          4.0540492479       -1.4750084768       -3.6258481818
 H          3.5066098123       -1.9819782159       -2.0296891120
 C          3.6209369386        0.1416435040       -2.3040692102
 H          4.3000442762        0.8741761514       -2.7449235937
 H          2.6515336782        0.2243691183       -2.8039755754
 H          6.6236775886       -0.4491705563        1.0078464584
 H          7.5483191220       -0.2395421776       -0.4846537414
 H          5.8789461335        1.2435304168       -1.4111965065
 H          6.2170079733        1.7775601709        0.2464380031
 O          4.0977236905        1.1312230704        1.2990403235
 C          2.8284262212        0.9991468630        1.8377583798
 O          2.7643816828        1.2403433890        3.0599594752
 H         -2.0238184577        0.0510150559        0.4000080044
 C         -1.4839807985       -0.8571285144        0.6069955862
 C         -0.2387347603       -0.8099572445        1.2110920181
 C          0.4372239704       -2.0070580068        1.4371354895
 C         -0.1132000658       -3.2135505968        1.0537843849
 C         -1.3637031554       -3.2565774396        0.4614173513
 C         -2.0505062164       -2.0704266483        0.2408187551
 N         -3.3163211868       -2.0709010801       -0.3634731624
 S         -4.5027208056       -1.0432770701        0.2114278148
 O         -4.3771023020       -0.8289728961        1.6348166487
 O         -5.7468802620       -1.6373476623       -0.2313437173
 C         -4.2591232922        0.4877179159       -0.6633455482
 C         -3.9731935976        0.4487114794       -2.0134382824
 C         -3.8284295966        1.6431548081       -2.7005779550
 C         -3.9789317620        2.8491820330       -2.0330591176
 C         -4.2693476774        2.8713151146       -0.6774203825
 C         -4.4115866029        1.6798272190        0.0165448761
 H         -4.6261449820        1.6508799171        1.0731444597
 H         -4.3832304347        3.8100980213       -0.1586255910
 H         -3.8652087279        3.7774533464       -2.5705675800
 H         -3.5977489661        1.6304359374       -3.7536081439
 H         -3.8612146229       -0.5055708446       -2.5002668482
 H         -3.6842038917       -2.9834339658       -0.5889722066
 H         -1.7997253932       -4.1993893488        0.1672751292
 H          0.4291818155       -4.1314365921        1.2256662198
 H          1.4102954519       -1.9749934435        1.9098219714
 C          0.4116324963        0.4804741664        1.6457029026
 H          0.6161095412        0.3995854591        2.7269403199
 C         -0.4893792691        1.6933761961        1.4659927056
 C          0.0864038343        3.0678378930        1.3055040564
 C         -0.6116078746        2.4091398806        0.1556296696
 H         -1.5836462806        2.7787700147       -0.1363792269
 H         -0.0192971547        2.0425442464       -0.6671612160
 H          1.1623813894        3.1590443484        1.2713775277
 H         -0.4045370169        3.8883093424        1.8068107789
 H         -1.3904289659        1.6180411633        2.0684251578
 O          1.0720883598       -0.0495308771       -1.1566057656
