  62
        -98.93567180
 C          1.9723683215        1.1658789054        0.2163136105
 C          2.2943621773        0.0045489094       -0.5233686580
 C          3.5638181798       -0.6750482335       -0.1813899660
 C          4.3167155167       -0.1907249852        0.8224962805
 C          5.6455468692       -0.6918243789        1.3219938870
 C          6.8098670302       -0.3104886542        0.3930696448
 C          6.5322348936       -0.4970789050       -1.0963018104
 H          7.3836771358       -0.0879861901       -1.6465333487
 H          5.6552026432        0.0906073636       -1.3735070672
 C          6.3374105433       -1.9431750194       -1.5455731498
 H          7.2350133964       -2.5170613810       -1.3044540678
 H          6.2321174661       -1.9340098054       -2.6335224173
 C          5.1254833304       -2.6686841446       -0.9576428372
 H          5.3140545633       -2.9814157042        0.0658498534
 H          4.9814580055       -3.5843026692       -1.5390146750
 C          3.8148990303       -1.8922516013       -1.0396034155
 H          2.9898805307       -2.5818369746       -0.8218760186
 H          3.6544237000       -1.5705836842       -2.0749805821
 H          7.6853292610       -0.8958469808        0.6790133640
 H          7.0409683854        0.7446907573        0.5582314113
 H          5.8100056749       -0.2238332201        2.2951746522
 H          5.6064060747       -1.7662683331        1.4751845518
 O          3.9530014604        0.9174633837        1.5289940055
 C          2.7992140692        1.6182574965        1.2485110307
 O          2.6168004072        2.6180284417        1.9720340047
 H         -0.2326464260       -0.5179682058       -0.1482352923
 C         -0.8272769978        0.1063396678        0.5021690936
 C         -0.4703836412        1.4365673913        0.6782179331
 C         -1.2511522352        2.2298946805        1.5102665367
 C         -2.3548555036        1.7003548982        2.1570000656
 C         -2.7056924148        0.3740497577        1.9816510044
 C         -1.9347363891       -0.4252758925        1.1467639056
 N         -2.2921135440       -1.7702288564        0.9453795766
 S         -3.8989089118       -2.0904359640        0.5992220091
 O         -4.6576110207       -2.1195448939        1.8252235910
 O         -3.8901785339       -3.3168991389       -0.1661853761
 C         -4.4361404220       -0.7204850347       -0.4096609261
 C         -3.8217595877       -0.5342095321       -1.6323359188
 C         -4.1918282552        0.5510258194       -2.4100731483
 C         -5.1634788721        1.4280902511       -1.9528328317
 C         -5.7754546586        1.2237206333       -0.7260796106
 C         -5.4086539266        0.1404838030        0.0564465326
 H         -5.8571391055       -0.0548790722        1.0167740761
 H         -6.5325980579        1.9058560011       -0.3745375820
 H         -5.4434422820        2.2753808478       -2.5584254093
 H         -3.7146245280        0.7126842276       -3.3632047827
 H         -3.0710109580       -1.2358973732       -1.9607960678
 H         -1.6772850072       -2.2576090467        0.3098084918
 H         -3.5561514959       -0.0579488350        2.4836283506
 H         -2.9479296301        2.3262101131        2.8059260403
 H         -0.9783861720        3.2641300666        1.6606242202
 C          0.7290640215        2.0051478323       -0.0349322225
 H          0.9521287668        2.9813444757        0.4231673077
 C          0.4772893148        2.2530131961       -1.5176180892
 C         -0.6616705751        1.6588220153       -2.2845354605
 C         -0.6710235447        3.1175110000       -1.9480008768
 H         -0.5098884878        3.8367313229       -2.7364695529
 H         -1.3564526873        3.4449721853       -1.1809172958
 H         -1.3503175731        1.0145638835       -1.7617690221
 H         -0.4703483725        1.3578466356       -3.3032533160
 H          1.4077540590        2.3757208083       -2.0633645922
 O          1.5739106544       -0.4722353656       -1.4397575870
