  62
        -98.95045962
 C         -1.7527326996       -1.2967278798       -0.2382418405
 C         -2.8587713296       -0.6740671001        0.3837963298
 C         -3.2891007498        0.6027384300       -0.1991115299
 C         -2.6297187900        1.0966974803       -1.2631242599
 C         -2.9443688802        2.4004426104       -1.9371205096
 C         -2.1158533003        3.5499675704       -1.3486706194
 C         -2.1515163301        3.6223286001        0.1778955106
 H         -1.6232906500        2.7558200101        0.5837823903
 H         -1.5739651602        4.5019429901        0.4728770807
 C         -3.5600476601        3.7094386398        0.7819980908
 H         -3.5526760301        4.4662229296        1.5694456809
 H         -4.2689386002        4.0395226099        0.0213378309
 C         -4.0649550098        2.4129841196        1.4182595405
 H         -4.9491775998        2.6498684594        2.0165092307
 H         -3.3031498397        2.0228328895        2.0986712304
 C         -4.4574654498        1.2968642897        0.4420218804
 H         -4.9871053197        0.5273886196        1.0117556803
 H         -5.1369806200        1.6925525498       -0.3156789995
 H         -2.4801440305        4.4892839904       -1.7701798492
 H         -1.0738166103        3.4183248306       -1.6499340396
 H         -4.0065093902        2.6122070103       -1.8282260594
 H         -2.7089311803        2.3027192507       -2.9985468896
 O         -1.5742307000        0.4681453406       -1.8374014401
 C         -1.0886418298       -0.7206645095       -1.3202171305
 O         -0.0866849698       -1.1685226592       -1.9120399407
 O         -3.4586867594       -1.1652259403        1.3799029897
 C         -1.2190860294       -2.6006194998        0.3264364492
 C          0.2317598606       -2.4404138698        0.7088268590
 C          1.1956651107       -3.4161514696        0.4864728387
 C          2.5165841107       -3.1917607295        0.8356197586
 C          2.9089713507       -1.9857708196        1.3871393388
 C          1.9497228406       -1.0083623298        1.6232205191
 C          0.6225868506       -1.2537367698        1.3155878492
 H         -0.1090916195       -0.4832575800        1.5105183995
 N          2.2903665005        0.2582070802        2.1473159594
 S          2.0733344602        1.5518157604        1.0977998097
 O          2.5496662102        2.7110817403        1.8225723098
 O          0.7071428402        1.5964145403        0.6497782598
 C          3.1922231001        1.1957191708       -0.2453603106
 C          2.8122096301        0.3098507609       -1.2334374407
 C          3.7333839000       -0.0233151687       -2.2157790009
 C          5.0057273100        0.5259159414       -2.1930099709
 C          5.3701702200        1.4151038512       -1.1927140808
 C          4.4582880400        1.7492872909       -0.2053589606
 H          4.6939716201        2.4367461908        0.5911677895
 H          6.3592017599        1.8439814514       -1.1775875308
 H          5.7157050199        0.2598620416       -2.9602358310
 H          3.4411379800       -0.7148962186       -2.9896973610
 H          1.8152305201       -0.1040831992       -1.2398131207
 H          3.2274841805        0.2999953102        2.5258305993
 H          3.9439891907       -1.7981786695        1.6305479287
 H          3.2537762908       -3.9590925294        0.6554563984
 H          0.9133464408       -4.3514456295        0.0314033685
 H         -1.8023331093       -2.7862534501        1.2412067292
 C         -1.4611457194       -3.7369497797       -0.6460535010
 C         -1.7056627791       -5.1283767898       -0.1449969113
 C         -2.8327179393       -4.3342387698       -0.7313324210
 H         -3.2146329294       -4.6132884497       -1.7018175910
 H         -3.5849733793       -3.9390948600       -0.0641812308
 H         -1.3160044591       -5.9577308196       -0.7158503315
 H         -1.7001272090       -5.2841813800        0.9231925387
 H         -0.9109945595       -3.6129185194       -1.5722253511
