  62
        -98.94320065
 C         -2.5084058840       -1.0096262304       -0.1657198766
 C         -3.6650435996       -0.8953112456        0.6421324606
 C         -4.7205489904       -0.0110606438        0.1314572407
 C         -4.5392818183        0.6173609274       -1.0447465951
 C         -5.5082998945        1.5871289167       -1.6554195386
 C         -5.2027374395        3.0272043632       -1.2200999173
 C         -5.0175764446        3.1903946947        0.2885238206
 H         -4.1197214173        2.6503000643        0.5977113170
 H         -4.8367222808        4.2500648558        0.4812769236
 C         -6.2102655445        2.7141050822        1.1294509985
 H         -6.4185984204        3.4623561526        1.8971013809
 H         -7.0992127042        2.6378331281        0.5022639920
 C         -5.9857978315        1.3850562474        1.8530717985
 H         -6.7919206740        1.2529721263        2.5796988702
 H         -5.0468674744        1.4255963803        2.4110704120
 C         -5.9639158329        0.1359709593        0.9629564876
 H         -6.8544104273        0.1187581984        0.3313541156
 H         -5.9908406283       -0.7393375535        1.6186614129
 H         -6.0163519076        3.6703448099       -1.5603776592
 H         -4.2837390129        3.3503952308       -1.7143570005
 H         -5.4236465938        1.5194145660       -2.7412728686
 H         -6.5203013646        1.3147560362       -1.3621393123
 O         -3.4191503224        0.4739557753       -1.7977900241
 C         -2.3723830659       -0.3337873995       -1.3782235877
 O         -1.4046701561       -0.3678379547       -2.1612655797
 O         -3.8061582080       -1.5022594194        1.7380159031
 C         -1.3736948754       -1.9024253614        0.3042215577
 C         -0.1195753959       -1.0826479946        0.4792393714
 C         -0.1477679505       -0.0016893285        1.3575241128
 C          0.9715808722        0.7838575054        1.5492330347
 C          2.1461284919        0.5121465794        0.8683049881
 C          2.1890416341       -0.5671133147       -0.0020554054
 C          1.0624071764       -1.3605687477       -0.1869236333
 H          1.1132377651       -2.1937579627       -0.8702556799
 N          3.3712834600       -0.8427735215       -0.7058026725
 S          4.8347270558       -0.8425162367        0.1093446526
 O          5.7053540838       -1.6849091212       -0.6812303458
 O          4.6691005865       -1.2135776069        1.4955390380
 C          5.3958188453        0.8431047125       -0.0093588078
 C          5.7559559435        1.5305382619        1.1330518341
 C          6.2025959060        2.8376699338        1.0162954649
 C          6.2818150206        3.4305044908       -0.2344412230
 C          5.9187802989        2.7254885133       -1.3724068301
 C          5.4722924488        1.4183442833       -1.2625573993
 H          5.1829333544        0.8376928703       -2.1226029202
 H          5.9813939626        3.1898629843       -2.3434210060
 H          6.6286033014        4.4479612841       -0.3232822813
 H          6.4854650154        3.3872642253        1.8997275865
 H          5.6728972009        1.0307873985        2.0851023209
 H          3.3014617258       -1.6221977514       -1.3431676275
 H          3.0221462278        1.1238360970        1.0090928970
 H          0.9315261333        1.6189996958        2.2321681049
 H         -1.0658591763        0.2129102122        1.8877238755
 H         -1.6816072847       -2.2671792362        1.2952116862
 C         -1.2139725313       -3.0902835631       -0.6204174785
 C         -0.5787381583       -4.3517219953       -0.1184396557
 C         -2.0525629732       -4.3093561892       -0.3862599117
 H         -2.4375776480       -4.8424867740       -1.2425559187
 H         -2.7271206043       -4.2934403783        0.4571582771
 H          0.0478299211       -4.9189138863       -0.7905343995
 H         -0.2491965688       -4.3698488934        0.9095669821
 H         -1.0350036420       -2.7996752280       -1.6496934147
