  62
        -98.94041235
 C         -2.0631524783       -1.0114719482        0.5420897706
 C         -2.7783342887       -0.0416305835        1.2909440176
 C         -4.1974908377        0.1290894434        0.9581130277
 C         -4.7394335141       -0.6361141823       -0.0065854075
 C         -6.1576857183       -0.5365273592       -0.4868453105
 C         -6.2772425044        0.4422526255       -1.6632961095
 C         -5.5991281782        1.7900778772       -1.4167923867
 H         -4.5196966615        1.6389292570       -1.3409351943
 H         -5.7746228397        2.4090092090       -2.2994290992
 C         -6.0950167325        2.5305718007       -0.1668588184
 H         -7.0556933842        2.1223355258        0.1493509327
 H         -6.2573686658        3.5796875718       -0.4230462791
 C         -5.1212778717        2.5063605426        1.0129774835
 H         -4.1312881208        2.8268184101        0.6778775010
 H         -5.4666059919        3.2331209711        1.7532768017
 C         -4.9744526834        1.1580940420        1.7296361166
 H         -4.4099577252        1.3313161281        2.6506329413
 H         -5.9611181316        0.7750743474        1.9985225436
 H         -5.8182798876       -0.0154959488       -2.5426181859
 H         -7.3363300591        0.5992141214       -1.8758184710
 H         -6.7923552117       -0.2121046396        0.3355256861
 H         -6.4804240122       -1.5261144048       -0.8147743762
 O         -4.0312028443       -1.5651924508       -0.6930144227
 C         -2.6745846102       -1.7679457142       -0.4590316695
 O         -2.1673783679       -2.6321995160       -1.1952393746
 O         -2.2481254868        0.6460089489        2.2056947207
 C         -0.5928968107       -1.1733981508        0.8827987051
 C          0.2559983969       -0.2507831562        0.0463126142
 C          0.1249776830       -0.2076562780       -1.3380991451
 C          0.9204126805        0.6353850192       -2.0928723568
 C          1.8650928620        1.4448672440       -1.4861291546
 C          2.0079770392        1.4045868297       -0.1059839977
 C          1.2044228345        0.5613099838        0.6506398202
 H          1.3079457969        0.5478964550        1.7272136331
 N          2.9957909482        2.2014656564        0.5076361494
 S          4.5722896375        1.9072719403        0.0103191271
 O          5.4125979192        2.4245218777        1.0657436019
 O          4.7706883405        2.4723201970       -1.2994580032
 C          4.6679556286        0.1282168138       -0.0608874661
 C          4.8529080979       -0.5639563901        1.1197360428
 C          4.8272647894       -1.9488469611        1.0962265726
 C          4.6031142967       -2.6145036352       -0.0993459884
 C          4.4213904464       -1.9051318792       -1.2759823803
 C          4.4535244586       -0.5198099784       -1.2606265751
 H          4.3205247297        0.0664708136       -2.1546763392
 H          4.2477183042       -2.4259670629       -2.2037919793
 H          4.5667881367       -3.6919444974       -0.1132594779
 H          4.9719542197       -2.5042904165        2.0089183438
 H          5.0249994605       -0.0096497745        2.0286999100
 H          2.9458756824        2.1933507187        1.5166861963
 H          2.4981645950        2.1026305302       -2.0596094981
 H          0.8046646609        0.6618513023       -3.1658929035
 H         -0.6022812726       -0.8479084376       -1.8143244972
 H         -0.5134099638       -0.8340677108        1.9279321696
 C         -0.1079120559       -2.6161596018        0.8360211857
 C          0.8839394786       -3.1247487465       -0.1628133563
 C          1.2912164757       -2.9447286004        1.2665086508
 H          1.4522263261       -3.8198938741        1.8769559044
 H          1.9473679439       -2.1177338053        1.4937395096
 H          0.7371500513       -4.1236913313       -0.5430696430
 H          1.2756332255       -2.4343927770       -0.8930252698
 H         -0.8849862427       -3.3118056962        1.1347486449
