  62
        -98.93219519
 C         -1.8755260397       -1.0369684192        0.2502754502
 C         -2.3192489195       -0.0359658092        1.1493840904
 C         -2.8766196893        1.1849782910        0.5505274805
 C         -2.8689266592        1.3164476212       -0.7880880795
 C         -3.4723424390        2.4580522014       -1.5563242193
 C         -5.0056738190        2.3007799817       -1.6122921294
 C         -5.7804719788        3.3889349618       -0.8685733692
 H         -5.7700934886        4.3029061719       -1.4658766791
 H         -6.8177227489        3.0563539220       -0.7916452093
 C         -5.2647154487        3.7391094515        0.5304449708
 H         -6.0491654986        4.3176363716        1.0228661409
 H         -4.3976274586        4.3962193813        0.4488560509
 C         -4.8945894690        2.5504111713        1.4268646407
 H         -5.4331020692        1.6536222815        1.1194623305
 H         -5.2142836790        2.7798780512        2.4453767607
 C         -3.3868128391        2.2410116610        1.4916896907
 H         -2.8156751989        3.1628623809        1.3480584508
 H         -3.1487419092        1.8626227108        2.4905113006
 H         -5.2635711392        1.3227863017       -1.2004568195
 H         -5.3326637090        2.2989242019       -2.6530707694
 H         -3.0492090890        2.4320260315       -2.5606584693
 H         -3.1985348288        3.4006889013       -1.0875619892
 O         -2.3700994594        0.3648570912       -1.6175472496
 C         -1.8565645497       -0.8297359990       -1.1291260397
 O         -1.4322358098       -1.5934157889       -2.0161439898
 O         -2.2539560196       -0.1611620994        2.4034850603
 C         -1.3027376100       -2.3119425494        0.8406860301
 C          0.0244978099       -2.6389998695        0.2012978600
 C          0.3543504597       -3.8910087695       -0.2993614301
 C          1.6047748696       -4.1163255297       -0.8495281301
 C          2.5462472899       -3.1075135499       -0.9111145900
 C          2.2209288101       -1.8444981999       -0.4245392198
 C          0.9753732801       -1.6267853197        0.1376204202
 H          0.7331090703       -0.6450718197        0.5213697203
 N          3.1400015003       -0.7881799801       -0.5286168197
 S          3.0116103806        0.5625994198        0.4625735705
 O          2.9254754605        0.1653199396        1.8512566005
 O          1.9517617908        1.4084333901       -0.0296932394
 C          4.5935010808        1.3222118995        0.1461230306
 C          5.6492321207        1.0641538292        1.0002978406
 C          6.8854546308        1.6292010290        0.7290057207
 C          7.0451725110        2.4365118891       -0.3871980592
 C          5.9762056011        2.6877787094       -1.2345914692
 C          4.7373926409        2.1260677496       -0.9687702293
 H          3.8758024710        2.2978602699       -1.5930096892
 H          6.1026902712        3.3184074895       -2.0997609791
 H          8.0079720411        2.8750366989       -0.5967868691
 H          7.7171419308        1.4381627687        1.3877098307
 H          5.4746853306        0.4387608491        1.8609605905
 H          4.0952768603       -1.0927133003       -0.6511830997
 H          3.5181155398       -3.2842688101       -1.3455539300
 H          1.8480199794       -5.0942024697       -1.2366954303
 H         -0.3705696505       -4.6876605794       -0.2760281502
 H         -1.1031776100       -2.0542656895        1.8958921101
 C         -2.2745450502       -3.4833831892        0.8578846699
 C         -3.7554140602       -3.2657991788        0.7795184699
 C         -3.0313741203       -3.9065571188       -0.3642651402
 H         -3.1799910205       -4.9626721588       -0.5354778203
 H         -2.8782890102       -3.3325508787       -1.2644508101
 H         -4.3957455003       -3.8791173588        1.3957203998
 H         -4.1066579400       -2.2511323487        0.6586022800
 H         -1.9455957304       -4.2738993993        1.5254589698
