  62
        -98.94462408
 C          1.9717817053        0.7728669694        0.5695415327
 C          2.0002009827        0.0882552380       -0.6690060453
 C          2.1529364701       -1.3684907856       -0.5872434327
 C          2.1862604986       -1.9709893315        0.6147296905
 C          2.2988309021       -3.4515384332        0.8604736342
 C          3.7381490721       -3.9844316108        0.8243934936
 C          4.3723556473       -4.0543298556       -0.5653540470
 H          5.2867857767       -4.6430405171       -0.4700629558
 H          3.7058232137       -4.5926577873       -1.2396767727
 C          4.7254953917       -2.6883447493       -1.1699568787
 H          4.7349929386       -1.9326158483       -0.3812668865
 H          5.7326029349       -2.7256653140       -1.5910123399
 C          3.7855135923       -2.2264419132       -2.2836196479
 H          3.8629574116       -2.9063442535       -3.1348271042
 H          4.1052105462       -1.2347572575       -2.6131471121
 C          2.3116770823       -2.1327346171       -1.8665258380
 H          1.7638718703       -1.5911864065       -2.6417280798
 H          1.8806611052       -3.1291064094       -1.7693164809
 H          3.7216909133       -4.9927432525        1.2443791643
 H          4.3553772504       -3.3623776803        1.4765899229
 H          1.6888561311       -3.9878849697        0.1327842111
 H          1.8872874011       -3.6316005695        1.8561875026
 O          2.1026223979       -1.2806795196        1.7847741537
 C          2.0047864847        0.1013702127        1.7899381561
 O          1.9584300393        0.6097143776        2.9305765370
 O          1.9093286271        0.6632203831       -1.7855334196
 C          1.8077840644        2.2819562480        0.5918400210
 C          0.5232199151        2.6496778733       -0.1115148895
 C          0.4199852854        3.6765686473       -1.0403560072
 C         -0.7866765848        3.9287394138       -1.6705810689
 C         -1.9048472129        3.1637632353       -1.3966756301
 C         -1.8163711735        2.1473571777       -0.4509585544
 C         -0.6141639931        1.9122032719        0.1932232789
 H         -0.5547952548        1.1175883149        0.9242820386
 N         -2.9406063887        1.3693190001       -0.1217477904
 S         -2.7045694374       -0.2390955247        0.3329084017
 O         -2.3486226812       -0.2796552116        1.7303278024
 O         -1.8014797500       -0.9003087217       -0.5823839705
 C         -4.3642998499       -0.8590125219        0.1247334406
 C         -4.6969486682       -1.5426560993       -1.0293025598
 C         -6.0002672623       -1.9853270854       -1.1942418950
 C         -6.9442415768       -1.7345886020       -0.2098357141
 C         -6.5952991511       -1.0475152278        0.9435734577
 C         -5.2938402662       -0.6036219070        1.1153793697
 H         -4.9722806406       -0.0742347781        1.9971396395
 H         -7.3308868352       -0.8564572715        1.7081094895
 H         -7.9576754986       -2.0793470097       -0.3409608824
 H         -6.2731908060       -2.5224709401       -2.0882298652
 H         -3.9268287838       -1.7193241633       -1.7631387898
 H         -3.6869755807        1.4551933068       -0.7985718514
 H         -2.8382891967        3.3477399641       -1.9063655206
 H         -0.8521660998        4.7234286334       -2.3982040879
 H          1.2867646349        4.2694368528       -1.2821276110
 H          1.7112895849        2.5633203602        1.6513356541
 C          3.0330238298        2.9579037518        0.0125144403
 C          3.4345161863        4.3240575184        0.4791184574
 C          4.2422535444        3.1275974760        0.8805561399
 H          5.2177352110        2.9890697035        0.4391822071
 H          4.1705352666        2.7770906316        1.9002479427
 H          3.8606049047        5.0094671757       -0.2378435344
 H          2.8206044738        4.7948519664        1.2319848324
 H          3.1949652101        2.7000325878       -1.0277862785
