  62
        -98.93430014
 C         -1.7235882757       -1.0460333980        0.2056440728
 C         -2.1770869311        0.2828920815        0.3854522469
 C         -3.6336476927        0.4563982745        0.5565284679
 C         -4.4357986606       -0.6205221790        0.5766754870
 C         -5.9299250478       -0.6811542505        0.7750016863
 C         -6.7861237538        0.3657593603        0.0500418038
 C         -6.2497240454        0.8078975978       -1.3192433476
 H         -5.4436577279        0.1449205641       -1.6383515248
 H         -7.0497621333        0.7258257064       -2.0573239992
 C         -5.7518322915        2.2552121476       -1.3266818047
 H         -5.7359224858        2.6161664820       -2.3579504119
 H         -6.4634457814        2.8736796715       -0.7752728287
 C         -4.3525122390        2.4703529641       -0.7512125128
 H         -3.6052713787        2.0436668767       -1.4263466421
 H         -4.1663866958        3.5464607152       -0.7113543702
 C         -4.1124720283        1.8767847931        0.6467181796
 H         -4.9992612106        1.9649932082        1.2696061320
 H         -3.2995390091        2.4386548482        1.1151721999
 H         -7.7793483952       -0.0697807848       -0.0717730560
 H         -6.9047295573        1.2430638507        0.6843689650
 H         -6.2187250188       -1.6819409636        0.4446140438
 H         -6.1322303137       -0.6267248429        1.8486877230
 O         -3.9488381567       -1.8876838794        0.4488307734
 C         -2.5999819570       -2.1321259115        0.2622319567
 O         -2.3079818264       -3.3409981329        0.1713189343
 O         -1.4209224727        1.2873037345        0.4143686799
 C         -0.2558471230       -1.3760103554       -0.0052417654
 C          0.6058182558       -0.5930431153        0.9535577091
 C          0.4755151105       -0.8355121357        2.3190131822
 C          1.2413509007       -0.1430310889        3.2359125288
 C          2.1726880559        0.7885656288        2.8105120688
 C          2.3098575039        1.0377773872        1.4509687027
 C          1.5288539749        0.3498157823        0.5317419310
 H          1.6216478533        0.5993829532       -0.5111729275
 N          3.2442019845        1.9730374713        0.9861043471
 S          4.0392817313        1.7180127229       -0.4566549466
 O          5.2770398388        2.4569538536       -0.3203465257
 O          3.2109739807        2.0915617421       -1.5749760740
 C          4.3791403129       -0.0340495993       -0.5091870017
 C          3.9725092183       -0.7751210796       -1.5995834124
 C          4.2336057059       -2.1360384218       -1.6229116286
 C          4.8922229231       -2.7301387141       -0.5578706863
 C          5.3016651268       -1.9709758431        0.5276838239
 C          5.0454461242       -0.6099157709        0.5544232093
 H          5.3581319607        0.0069045712        1.3809535174
 H          5.8167669366       -2.4359526103        1.3526889743
 H          5.0882083402       -3.7905842357       -0.5755571048
 H          3.9183792678       -2.7274473394       -2.4680266094
 H          3.4575341853       -0.2735961389       -2.4036515399
 H          3.8418152631        2.3772359015        1.6910143252
 H          2.7747704827        1.3296053578        3.5244803395
 H          1.1201001361       -0.3341607588        4.2915411658
 H         -0.2490774163       -1.5669741420        2.6509982625
 H         -0.1663582351       -2.4425690813        0.2598397644
 C          0.2067006485       -1.2488782427       -1.4490333774
 C         -0.7335303352       -1.4817519873       -2.5924986071
 C         -0.2063280500       -0.1055400225       -2.3242051486
 H          0.5232668014        0.3146524654       -3.0019828860
 H         -0.8719720047        0.6310910108       -1.9023885215
 H         -0.3683050681       -2.0154805554       -3.4568977593
 H         -1.7676415406       -1.6886980939       -2.3572630056
 H          1.2201279442       -1.6172366053       -1.5773418227
