  62
        -98.94474197
 C          1.8200074721        0.4822938587       -0.5541037613
 C          2.8541315759        1.2947760633       -0.0305503102
 C          4.2205931685        0.8059945279       -0.2439117483
 C          4.4213094616       -0.3377921192       -0.9236482519
 C          5.7567665951       -0.9524236570       -1.2447863545
 C          6.3354398185       -1.8138673152       -0.1138718155
 C          6.8579841573       -1.0355624550        1.0943456746
 H          7.4267908015       -1.7384230317        1.7063671905
 H          7.5507004670       -0.2643995048        0.7559813360
 C          5.7613134183       -0.4012361222        1.9611494610
 H          4.8005433129       -0.8672941414        1.7301694589
 H          5.9688075992       -0.6015069782        3.0147297074
 C          5.6275147016        1.1136898623        1.8056599657
 H          6.5398428181        1.6000514517        2.1578203265
 H          4.8011022358        1.4515781796        2.4360540857
 C          5.3488362179        1.5787113341        0.3702013926
 H          5.0528276376        2.6300908046        0.4014267078
 H          6.2490729924        1.4864804549       -0.2368600988
 H          7.1633883644       -2.3895316677       -0.5341237325
 H          5.5699965130       -2.5223069658        0.2113764379
 H          6.4677749043       -0.1685456497       -1.5073172282
 H          5.6029695005       -1.5895189808       -2.1184213505
 O          3.4000462584       -1.0797991210       -1.4294659772
 C          2.0770572819       -0.7038343358       -1.2414012093
 O          1.2463510099       -1.4931012004       -1.7301147635
 O          2.6441914956        2.3731657601        0.5863723490
 C          0.3778697535        0.9168006562       -0.3611697269
 C         -0.3845328556       -0.1497232938        0.3832977713
 C          0.1405740259       -0.6255426291        1.5834939665
 C         -0.4993791895       -1.6231415684        2.2905547157
 C         -1.6871638004       -2.1597905190        1.8241419458
 C         -2.2261723969       -1.6849356613        0.6355282631
 C         -1.5809555075       -0.6785058652       -0.0733368488
 H         -2.0136307615       -0.3433405798       -1.0008043807
 N         -3.4264705064       -2.2126559040        0.1408587512
 S         -4.5234618512       -1.2359022662       -0.6456662401
 O         -5.7877298794       -1.9258529648       -0.4978959490
 O         -4.1057051897       -0.9823680914       -2.0013624749
 C         -4.5561487597        0.2920250252        0.2773290565
 C         -4.4845478438        1.4908988879       -0.4006958931
 C         -4.5188167668        2.6748837004        0.3188562865
 C         -4.6214006456        2.6389667865        1.7003949559
 C         -4.6982265802        1.4261098871        2.3680730632
 C         -4.6691067951        0.2401705072        1.6529023022
 H         -4.7349683611       -0.7148579058        2.1476674675
 H         -4.7797201958        1.4012626110        3.4427614825
 H         -4.6423086361        3.5610151139        2.2596682963
 H         -4.4620202168        3.6178690901       -0.2011382130
 H         -4.3979760950        1.4728047315       -1.4748559193
 H         -3.8763151307       -2.8935738288        0.7339757357
 H         -2.1850178383       -2.9477887890        2.3683069038
 H         -0.0736537285       -1.9872124850        3.2134100383
 H          1.0696010006       -0.2072395568        1.9462365649
 H          0.4269246869        1.8130629399        0.2751221919
 C         -0.2348915240        1.2992265833       -1.6910104880
 C         -1.3294706659        2.3201332882       -1.7538651977
 C          0.0433943850        2.6628918030       -2.2466846718
 H          0.2025785648        2.7642494634       -3.3097922712
 H          0.6525996923        3.3249330670       -1.6488218126
 H         -2.1140646041        2.1819079161       -2.4823921372
 H         -1.6595826243        2.7555912514       -0.8230784540
 H         -0.2666514502        0.4714671376       -2.3913851741
