  62
        -98.93906420
 C         -2.4713432847       -1.0064949500        0.3716568111
 C         -2.7484113198        0.1725206633        1.1140745438
 C         -4.0816973304        0.7569125492        0.9404192091
 C         -4.9711809622        0.1529952172        0.1320791472
 C         -6.3830738667        0.6027242031       -0.1286999717
 C         -6.5044953627        1.6834289828       -1.2116817288
 C         -6.0163276427        3.0730266009       -0.8006600810
 H         -6.3588354001        3.7722577531       -1.5659589715
 H         -6.4899244307        3.3603848790        0.1385353820
 C         -4.4916756279        3.1949769295       -0.6687994895
 H         -4.0122444833        2.3553130116       -1.1775994789
 H         -4.1539876657        4.1056579159       -1.1685796559
 C         -3.9817437097        3.2544167317        0.7712863864
 H         -2.8897200943        3.3011365187        0.7466842615
 H         -4.3469330836        4.1643216544        1.2528473214
 C         -4.3836747055        2.0508822302        1.6339139971
 H         -5.4416363473        2.1074337383        1.8896493618
 H         -3.7974261657        2.0782296518        2.5558034121
 H         -5.9580285347        1.3527076711       -2.0978133120
 H         -7.5607167579        1.7576462283       -1.4802923171
 H         -6.9335849455       -0.2803558585       -0.4598280325
 H         -6.8288333899        0.9632744689        0.7987374283
 O         -4.6788795767       -0.9865865152       -0.5444510591
 C         -3.4270792878       -1.5818526407       -0.4665898591
 O         -3.3238832887       -2.5990964585       -1.1801411289
 O         -1.9184051452        0.7068953596        1.8987209475
 C         -1.0869825598       -1.6049833532        0.5457266374
 C         -0.1494467797       -1.2220123536       -0.5750774402
 C         -0.3900665054       -1.6023773336       -1.8915576702
 C          0.5100019779       -1.2739060440       -2.8885507543
 C          1.6727308824       -0.5841728116       -2.5927178986
 C          1.9183262086       -0.1936050665       -1.2817839460
 C          1.0022161728       -0.5048014093       -0.2865437474
 H          1.2015440619       -0.1838332916        0.7258050530
 N          3.0786341011        0.5225392172       -0.9489486954
 S          3.7990504238        0.2172258458        0.5480967282
 O          3.7747045570       -1.2003382470        0.8286505377
 O          3.1959168333        1.0743717927        1.5378106888
 C          5.4681934540        0.7538568336        0.2228676530
 C          5.7629555669        2.1018288818        0.3045910638
 C          7.0523615251        2.5233656267        0.0213068587
 C          8.0195510735        1.5960199965       -0.3374850332
 C          7.7092243889        0.2465055570       -0.4130890426
 C          6.4212569100       -0.1819548676       -0.1324774695
 H          6.1359274560       -1.2210271807       -0.1697623504
 H          8.4641537551       -0.4721703122       -0.6884950307
 H          9.0224818909        1.9269575949       -0.5561712855
 H          7.2981713353        3.5712538687        0.0823169022
 H          4.9811679545        2.7835364673        0.5968788746
 H          3.7562793944        0.5488717100       -1.6984894902
 H          2.3813540804       -0.3439176529       -3.3708297322
 H          0.3109820958       -1.5723400470       -3.9069098755
 H         -1.2888523140       -2.1531707466       -2.1222983066
 H         -0.6935421342       -1.1507177730        1.4662142135
 C         -1.0867620643       -3.1121907658        0.7220490585
 C          0.1419058160       -3.7687179809        1.2741853038
 C         -1.1050258021       -3.6926171125        2.1023469924
 H         -1.6674828541       -4.5983437534        2.2726673188
 H         -1.1227408539       -3.0037476868        2.9346286213
 H          0.4352890170       -4.7276611862        0.8752100730
 H          0.9746036244       -3.1322073403        1.5382059932
 H         -1.6356697351       -3.6362208457       -0.0493346507
