  62
        -98.93915120
 C          1.5389741054        0.8486506058        0.3824441334
 C          2.8529750962        0.9834643475        0.8870030858
 C          3.9616210864        0.6115941084       -0.0131165100
 C          3.6669516969        0.1531198115       -1.2439291123
 C          4.6131306587       -0.3264370109       -2.3127698410
 C          5.1740207316       -1.7276879663       -2.0238188240
 C          5.6369173697       -1.9500234172       -0.5864767798
 H          4.7987908897       -1.7740129353        0.0904168035
 H          5.9166580159       -3.0022569292       -0.4875163827
 C          6.8315219140       -1.1053579164       -0.1493724248
 H          7.6740133917       -1.3048787051       -0.8152714413
 H          7.1143278442       -1.4393784288        0.8522034501
 C          6.5988752005        0.4063555715       -0.0961558051
 H          6.6373890367        0.8460150760       -1.0891648141
 H          7.4278114856        0.8429434191        0.4685096751
 C          5.3172885131        0.8272445788        0.6157809221
 H          5.2766470222        0.3425367468        1.5979157296
 H          5.3732103156        1.9016187431        0.8285793047
 H          4.3880362205       -2.4566930606       -2.2370832366
 H          6.0024907164       -1.9152739771       -2.7090794205
 H          4.0401307243       -0.3672164027       -3.2418200056
 H          5.4168394359        0.3907311159       -2.4505497395
 O          2.3823019493        0.0271658334       -1.6843748740
 C          1.2924053506        0.3642097740       -0.9017466555
 O          0.1917398964        0.2017691542       -1.4614405685
 O          3.1001701024        1.3974809212        2.0523266306
 C          0.3740559659        1.2077614932        1.2897457504
 C         -0.3490410415       -0.0621431561        1.6661317187
 C          0.3056580346       -0.9969661626        2.4654459304
 C         -0.3126813916       -2.1809983128        2.8158653312
 C         -1.5900536076       -2.4662165007        2.3624818391
 C         -2.2487707209       -1.5451455249        1.5595115908
 C         -1.6328509221       -0.3448119831        1.2305385631
 H         -2.1623012793        0.3642007116        0.6202730893
 N         -3.5524365958       -1.7869451021        1.0871143907
 S         -3.8104616121       -1.7001005548       -0.5752201827
 O         -5.0591341612       -2.4087012617       -0.7733990571
 O         -2.6759809990       -2.2107705399       -1.3082861845
 C         -4.0777474937        0.0271618584       -0.9072148329
 C         -5.2056929760        0.6179483274       -0.3715330480
 C         -5.4353110315        1.9626394262       -0.6128764498
 C         -4.5400575963        2.6871599577       -1.3859226723
 C         -3.4159099977        2.0762333208       -1.9203114113
 C         -3.1764447533        0.7313465808       -1.6811848053
 H         -2.2933841765        0.2323188901       -2.0507409355
 H         -2.7152090760        2.6390842720       -2.5169954349
 H         -4.7164457498        3.7349724048       -1.5727180524
 H         -6.3072285852        2.4420789879       -0.1980102613
 H         -5.8776217225        0.0153785506        0.2164770392
 H         -3.9658197796       -2.6357265493        1.4487312976
 H         -2.0712496529       -3.3962565609        2.6265011050
 H          0.2043717204       -2.8940365758        3.4405576499
 H          1.3082003705       -0.7788013404        2.8072946887
 H          0.8334804033        1.6176270293        2.2006040885
 C         -0.5180333770        2.2608672888        0.6692267893
 C         -1.4857124852        3.0161632547        1.5290561752
 C         -0.2763220238        3.7068943078        0.9761716869
 H         -0.4094393100        4.4293625142        0.1852452363
 H          0.5310439016        3.9454833698        1.6530699872
 H         -2.4532340571        3.2616407400        1.1179801753
 H         -1.4993388604        2.7852095189        2.5833268801
 H         -0.8251460215        2.0131874527       -0.3394787857
