  62
        -98.93962900
 C          2.4050656896        1.2658215128        0.0034197258
 C          3.0693798403        0.4393522121        0.9377031237
 C          3.7321240733       -0.7622546263        0.4043943952
 C          3.6482876268       -1.0336406978       -0.9116942079
 C          4.2441829450       -2.1596643204       -1.7301518070
 C          4.7327562635       -3.4405825873       -1.0575918694
 C          3.6410132282       -4.2706325636       -0.3841623981
 H          2.9770314890       -4.6691258118       -1.1555294779
 H          4.1174659092       -5.1173339148        0.1149863801
 C          2.7739477284       -3.5250954903        0.6279978037
 H          2.1812041532       -2.7638505034        0.1142053158
 H          2.0653608143       -4.2418561086        1.0531766763
 C          3.5323384186       -2.8750298623        1.7847661463
 H          4.1670405639       -3.6187164215        2.2699742565
 H          2.7903884590       -2.5415246371        2.5155773516
 C          4.3957479294       -1.6553828356        1.4124181811
 H          4.5341434860       -1.0525464207        2.3145438709
 H          5.3809936714       -1.9571238558        1.0655605002
 H          5.1731384194       -4.0554109898       -1.8471830951
 H          5.5268585712       -3.2182970287       -0.3509676575
 H          3.4829406432       -2.4147100411       -2.4743476190
 H          5.0815014639       -1.7192411731       -2.2827909423
 O          2.9833161067       -0.2116356709       -1.7747148437
 C          2.3326451076        0.9354969832       -1.3488631422
 O          1.7465727884        1.5569356503       -2.2543443223
 H          0.2520149479        0.4473287048        1.3829757744
 C         -0.3767644097        1.1268206710        0.8197475727
 C          0.1866179112        2.2822300107        0.2899074725
 C         -0.6287646581        3.1450823926       -0.4285120705
 C         -1.9660030215        2.8422981679       -0.6242127912
 C         -2.5178052915        1.6849367600       -0.1069380111
 C         -1.7123046214        0.8195176694        0.6225465495
 N         -2.2648400241       -0.3625070381        1.1573565325
 S         -2.9440839653       -1.4337919748        0.0511177795
 O         -2.8709376324       -2.7321047171        0.6864413965
 O         -2.3229565226       -1.3188763238       -1.2488620906
 C         -4.6476915229       -0.9242436559       -0.0305189420
 C         -5.2037022418       -0.5676254273       -1.2431815010
 C         -6.5341973069       -0.1794886609       -1.2811367383
 C         -7.2798014323       -0.1552236754       -0.1124245434
 C         -6.7062377230       -0.5179718757        1.0973582728
 C         -5.3775418383       -0.9084711740        1.1421863114
 H         -4.8938016100       -1.2018585440        2.0588065153
 H         -7.2892803035       -0.4975102625        2.0038974324
 H         -8.3142816436        0.1481905344       -0.1448679375
 H         -6.9814523976        0.1026623140       -2.2206922469
 H         -4.5820429096       -0.5954865646       -2.1240174574
 H         -1.6212821322       -0.8604254151        1.7569885164
 H         -3.5560847526        1.4430885599       -0.2659661908
 H         -2.5866515831        3.5173470523       -1.1933721405
 H         -0.2149044173        4.0463448722       -0.8494104311
 C          1.6655875754        2.4954008670        0.5027365921
 H          1.8541007878        2.5292097758        1.5859009950
 C          2.2063940689        3.7593032934       -0.1278028554
 C          2.0406713268        5.0737930193        0.5728965144
 C          3.3917582875        4.4307504262        0.4961533019
 H          4.1367970571        4.8663743798       -0.1523991276
 H          3.8002216141        3.9862146435        1.3920284800
 H          1.8594293236        5.9559888139       -0.0219795088
 H          1.5315782860        5.0706276396        1.5247003442
 H          2.1542312215        3.7425056853       -1.2102380947
 O          3.1062121410        0.6908792608        2.1734752321
