  62
        -98.94108007
 C         -1.1069019098       -1.2306615897       -0.2115110294
 C         -2.0017183200       -0.9022046397        0.8392697504
 C         -2.8871738900        0.2555495902        0.6331812403
 C         -2.8147420999        0.9397815902       -0.5233606097
 C         -3.5768725899        2.1537690102       -1.0127898099
 C         -4.8512683500        2.6124011401       -0.3079943301
 C         -6.0325138399        1.6506223400       -0.4287753002
 H         -6.8518440101        2.0390544400        0.1801632496
 H         -6.3684433098        1.6402150300       -1.4688203503
 C         -5.7525923899        0.2063390801       -0.0205183602
 H         -6.6784025799       -0.3615410600       -0.1472165803
 H         -5.0143645798       -0.2302631499       -0.6963671501
 C         -5.2823678801        0.0131550501        1.4200208299
 H         -5.9905806103        0.4843778301        2.1043085798
 H         -5.2847022201       -1.0607923199        1.6245754199
 C         -3.8702952102        0.5399362902        1.7317423001
 H         -3.5026556903        0.0133479802        2.6169426902
 H         -3.8886009903        1.6014991902        1.9668101501
 H         -4.6489168702        2.8343134601        0.7356449100
 H         -5.1453478400        3.5540226201       -0.7798139201
 H         -2.8630485499        2.9844095302       -1.0042788598
 H         -3.8038346497        1.9555675901       -2.0650939499
 O         -1.9122237497        0.6112829802       -1.4900496096
 C         -1.0442294697       -0.4599702997       -1.3706417694
 O         -0.2954069095       -0.5963394197       -2.3599424793
 O         -2.0642389801       -1.5591679297        1.9117376204
 C         -0.2365887098       -2.4599437396       -0.0047139393
 C          1.1574806401       -2.0746729696        0.4253244009
 C          1.6428788199       -2.4180968795        1.6815205210
 C          2.9124220299       -2.0339217994        2.0787630712
 C          3.7190887200       -1.2892804094        1.2362261713
 C          3.2372867301       -0.9360121394       -0.0166910088
 C          1.9737619502       -1.3371558395       -0.4204299390
 H          1.6040435604       -1.0461427796       -1.3924281990
 N          4.0261403002       -0.1137119094       -0.8591748387
 S          4.1414141900        1.4645638206       -0.3029011387
 O          4.6017867502        2.2521103106       -1.4234358286
 O          4.9775685599        1.4770736007        0.8702488315
 C          2.4725828200        1.9184740605        0.1377359111
 C          1.6523935201        2.4561629005       -0.8327962091
 C          0.3387089800        2.7545389804       -0.5107861093
 C         -0.1347444202        2.4929782404        0.7653363607
 C          0.6978289397        1.9396520004        1.7253591108
 C          2.0160331398        1.6515901605        1.4131027410
 H          2.6956625797        1.2310808706        2.1359767411
 H          0.3201052396        1.7269144204        2.7125555207
 H         -1.1602527102        2.7153522803        1.0156349705
 H         -0.3114218599        3.1759818103       -1.2610194594
 H          2.0548355102        2.6426711205       -1.8157851490
 H          3.6740222104       -0.0933997794       -1.8073514287
 H          4.6985659399       -0.9541682793        1.5366586815
 H          3.2751132597       -2.3103697194        3.0570199413
 H          1.0099732499       -2.9759057595        2.3560166909
 H         -0.7038028899       -3.0038126597        0.8269796307
 C         -0.1987704295       -3.3741507597       -1.2140700293
 C          0.1783357005       -4.8118678596       -1.0263213292
 C         -1.2365211595       -4.4448054197       -1.3574837794
 H         -1.6128788193       -4.6682467397       -2.3445133295
 H         -1.9805517496       -4.5278712397       -0.5786469795
 H          0.7774173906       -5.2903930696       -1.7857193991
 H          0.3928932704       -5.1456864296       -0.0224677591
 H          0.1319339906       -2.8808417596       -2.1187731592
