  62
        -98.94333057
 C         -1.7026717976       -1.3031720151        0.4497106333
 C         -1.3344511828       -0.2155470569       -0.3814230457
 C         -2.0290511662        1.0515044915       -0.1208615308
 C         -2.8835826119        1.1503553690        0.9115661853
 C         -3.6440038678        2.3822345786        1.3214045101
 C         -4.9407494072        2.6102584970        0.5319625095
 C         -4.7523751014        3.0722866052       -0.9136611763
 H         -5.7289358614        3.4028787958       -1.2727995933
 H         -4.0882266318        3.9369122979       -0.9323197607
 C         -4.2183102148        1.9893422138       -1.8614412752
 H         -4.3514844843        1.0070699194       -1.4023256492
 H         -4.8018542348        1.9934234058       -2.7846610844
 C         -2.7498308413        2.1579907028       -2.2515075009
 H         -2.4672560249        1.3199778204       -2.8934204249
 H         -2.6264665876        3.0789198449       -2.8252927266
 C         -1.7825544780        2.1921101893       -1.0608700357
 H         -1.8646809159        3.1415086278       -0.5316741492
 H         -0.7607801100        2.0963205744       -1.4364953355
 H         -5.5244176187        1.6867957584        0.5469962526
 H         -5.5136251878        3.3736830605        1.0634786094
 H         -2.9973912359        3.2557979666        1.2291276653
 H         -3.8995952139        2.2522878230        2.3755633340
 O         -3.1435603206        0.1067836393        1.7454521102
 C         -2.5637536836       -1.1337671984        1.5351859036
 O         -2.8823106182       -1.9951283659        2.3822239687
 O         -0.4792676157       -0.2866316954       -1.3002473551
 C         -1.0651937394       -2.6758836204        0.2948732269
 C          0.4235398023       -2.4958345547        0.1339814483
 C          1.1603059764       -2.9658368296       -0.9447349979
 C          2.5108226611       -2.6796948500       -1.0518779702
 C          3.1469480997       -1.9010155138       -0.1020792925
 C          2.4195686134       -1.4396071401        0.9864900666
 C          1.0810638361       -1.7611213745        1.1141402266
 H          0.5180402351       -1.3808930365        1.9591791225
 N          3.0535138619       -0.5560481022        1.9108147783
 S          2.6733270480        1.0480337408        1.5261521652
 O          3.3915094422        1.8591108766        2.4880500606
 O          1.2406175984        1.2591773218        1.4954176597
 C          3.3881273201        1.2289840538       -0.0892999150
 C          4.7205329963        1.5840658372       -0.1764186866
 C          5.3074253035        1.6790376328       -1.4275757696
 C          4.5560850719        1.4118634396       -2.5625936811
 C          3.2210726704        1.0539293089       -2.4557692157
 C          2.6246291469        0.9580122529       -1.2074646820
 H          1.5901349116        0.6693222582       -1.0948731972
 H          2.6346417472        0.8394505311       -3.3347055406
 H          5.0133772000        1.4811733980       -3.5370833872
 H          6.3456275187        1.9564649691       -1.5137193261
 H          5.2600193408        1.7820072291        0.7352073317
 H          2.7537015395       -0.7158373170        2.8644839498
 H          4.1883150513       -1.6384276605       -0.1931990875
 H          3.0678339992       -3.0451860420       -1.9005334717
 H          0.6684405843       -3.5281182815       -1.7213916600
 H         -1.2448731716       -3.1825916915        1.2580135774
 C         -1.6970235825       -3.5454113554       -0.7810999512
 C         -3.1354892104       -3.3678543226       -1.1636977082
 C         -2.0525129857       -3.0113895297       -2.1347616223
 H         -1.9056943837       -3.6517828081       -2.9920873243
 H         -1.8541839898       -1.9693088731       -2.3268654275
 H         -3.7292236107       -4.2500873882       -1.3504193021
 H         -3.6829655382       -2.5670688264       -0.6871646607
 H         -1.3367679556       -4.5685709013       -0.7374093711
