  62
        -98.94018415
 C         -2.4381208322        0.8807023973        0.0022134760
 C         -2.7125396653       -0.4864158862       -0.2425810402
 C         -4.1019413320       -0.7995267378       -0.6010936126
 C         -5.0064285337        0.1910890167       -0.7066956304
 C         -6.4525518312        0.0336396734       -1.0918450077
 C         -7.3725317502       -0.3438744701        0.0771791370
 C         -7.2319415495       -1.7822985866        0.5764636731
 H         -8.0761960856       -1.9743833644        1.2415549858
 H         -7.3186898761       -2.4684078233       -0.2665425666
 C         -5.9296516791       -2.0631637005        1.3391495657
 H         -5.4758660368       -1.1182317733        1.6469584302
 H         -6.1545205103       -2.6212509293        2.2508943142
 C         -4.8976008054       -2.8740898434        0.5552203720
 H         -5.2912845559       -3.8731931082        0.3556230133
 H         -4.0038471535       -2.9818732577        1.1752130405
 C         -4.4750297556       -2.2405652172       -0.7768787939
 H         -5.2736519318       -2.3411659234       -1.5114982576
 H         -3.5911908595       -2.7684756066       -1.1433356674
 H         -8.4018094248       -0.1971867501       -0.2580974792
 H         -7.1898895829        0.3480361475        0.9025697043
 H         -6.7754147094        0.9998343049       -1.4854344780
 H         -6.5419900673       -0.7116772763       -1.8825585262
 O         -4.6933700075        1.4968587293       -0.4891042977
 C         -3.4138422814        1.8703185020       -0.1123153127
 O         -3.2701701418        3.0957509291        0.0771472059
 O         -1.8464782439       -1.3967804453       -0.1709354197
 C         -1.0410985862        1.3098299767        0.4074945977
 C         -0.0293028604        0.9019526730       -0.6363178942
 C         -0.3173011038        1.1130439185       -1.9825808334
 C          0.5963458967        0.7764416177       -2.9620709038
 C          1.8273635312        0.2437574272       -2.6213414392
 C          2.1275079396        0.0344426476       -1.2813085815
 C          1.2002831812        0.3588970886       -0.3000105496
 H          1.4625985131        0.1846053461        0.7300293595
 N          3.3619078893       -0.5151842843       -0.8990987316
 S          4.0774791611        0.0482637744        0.5233042296
 O          3.5531880531       -0.6975890005        1.6394314616
 O          3.9574785048        1.4865420458        0.6015571374
 C          5.7768093373       -0.4131370015        0.2370636170
 C          6.1644780164       -1.7169511644        0.4829992714
 C          7.4773705414       -2.0834919894        0.2331030889
 C          8.3757307958       -1.1463879269       -0.2556960122
 C          7.9727491105        0.1586992385       -0.4954717008
 C          6.6607659521        0.5317029143       -0.2491201572
 H          6.3045699780        1.5362419029       -0.4120332920
 H          8.6742196287        0.8858268365       -0.8717196313
 H          9.3971999083       -1.4343370629       -0.4479409091
 H          7.7952976080       -3.0963002577        0.4212189846
 H          5.4341738780       -2.4076884691        0.8712899471
 H          4.0249129436       -0.5613102462       -1.6607285706
 H          2.5445769829       -0.0127124171       -3.3862241214
 H          0.3530652645        0.9404000384       -4.0012548316
 H         -1.2733603131        1.5434663612       -2.2498596865
 H         -1.0573508643        2.4099650250        0.4456568146
 C         -0.7178043992        0.7830007589        1.7905746739
 C          0.2256532819        1.5288239828        2.6839398283
 C         -1.2410850839        1.5112116310        2.9905122318
 H         -1.5852229582        0.9341422773        3.8356292773
 H         -1.8115484499        2.4115213042        2.8125890298
 H          0.8957916351        0.9610582796        3.3127421216
 H          0.6579125409        2.4425186734        2.3033835267
 H         -0.7036175055       -0.3008733685        1.8289057831
