  62
        -98.93701293
 C         -2.4666294563       -1.4444772874        0.1273205446
 C         -2.6075557318       -0.4277003433       -0.8470558995
 C         -3.5611605267        0.6456723579       -0.5265263087
 C         -4.2359848888        0.6232509212        0.6359089520
 C         -5.2694987910        1.6149637040        1.0995150811
 C         -4.7641677096        3.0463564164        1.3652206239
 C         -4.9209755324        4.0032661915        0.1769652145
 H         -5.7246382803        3.6389911452       -0.4640944439
 H         -5.2364326651        4.9790525252        0.5516747061
 C         -3.6620173725        4.2358307000       -0.6642482609
 H         -3.9664179339        4.7189774622       -1.5952736779
 H         -3.0014271122        4.9274452331       -0.1361780550
 C         -2.8409168219        2.9902036747       -1.0000443766
 H         -2.1027859903        3.2625694081       -1.7579012459
 H         -2.2705278298        2.6768111265       -0.1212512931
 C         -3.6688983472        1.7879071709       -1.4948054816
 H         -4.7101391533        2.0714368663       -1.6393880815
 H         -3.2725764459        1.4312023935       -2.4475110942
 H         -3.7245631986        3.0106102765        1.6908539260
 H         -5.3499671463        3.4391137100        2.1977630676
 H         -6.0792699165        1.6467170100        0.3672095290
 H         -5.6726706873        1.2018023597        2.0262473042
 O         -4.0737968371       -0.3729013832        1.5479178806
 C         -3.1867608117       -1.4099018509        1.3266003814
 O         -3.1340296006       -2.2405253879        2.2553002295
 H          0.0812286430       -0.9683821352       -1.4553072381
 C          0.5737696818       -1.3288462320       -0.5645572735
 C         -0.1033210013       -2.1933778426        0.2837548696
 C          0.5315314162       -2.6168124042        1.4457012106
 C          1.8120755064       -2.1861711996        1.7454689768
 C          2.4824794638       -1.3223782165        0.8977057881
 C          1.8512101092       -0.8836411460       -0.2585695174
 N          2.5162294873        0.0097538542       -1.1199916527
 S          3.1142689357        1.4229593608       -0.4353199053
 O          2.3567470322        1.8094801455        0.7336402587
 O          3.1653120434        2.3828429163       -1.5166048333
 C          4.7788585046        0.9895830743        0.0272614442
 C          5.6135742913        0.4861296158       -0.9514466154
 C          6.9140878459        0.1483390817       -0.6130455742
 C          7.3567044578        0.3216273893        0.6900642688
 C          6.5077184667        0.8318490097        1.6601498950
 C          5.2049269874        1.1707120716        1.3283455957
 H          4.5072188501        1.5647138659        2.0502303437
 H          6.8533900538        0.9663140123        2.6725220010
 H          8.3692893289        0.0574893181        0.9512851097
 H          7.5771839610       -0.2486404729       -1.3646963781
 H          5.2306498675        0.3705667439       -1.9516000246
 H          1.9800625882        0.2259350328       -1.9491369197
 H          3.4767260511       -0.9769095206        1.1298948981
 H          2.2925387110       -2.5240098077        2.6510542907
 H          0.0041139872       -3.2717592344        2.1242193897
 C         -1.5172517057       -2.6250407205       -0.0248475715
 H         -1.8213914077       -3.3469964959        0.7444862048
 C         -1.6185429588       -3.2986735844       -1.3791233659
 C         -1.1320110445       -4.7078909031       -1.5245625742
 C         -2.6008369456       -4.4133886913       -1.5683064363
 H         -3.1170430394       -4.4891371625       -2.5135426688
 H         -3.2045853435       -4.6966448618       -0.7181911163
 H         -0.6365394244       -4.9891985312       -2.4409769256
 H         -0.7394814727       -5.1937889293       -0.6441506649
 H         -1.4704336050       -2.6242696105       -2.2116709485
 O         -1.9882735062       -0.3947271983       -1.9451300319
