  62
        -98.94627610
 C          1.5403196402        1.4670223500       -0.0765965915
 C          1.5139074408        0.1076361303        0.3198853995
 C          2.8090163211       -0.4622913089        0.7125072297
 C          3.9101606908        0.3103247516        0.7076075289
 C          5.2970812410       -0.1251266476        1.0968191790
 C          6.0706557311       -0.8240795182       -0.0298583306
 C          5.5974377916       -2.2391612986       -0.3654350094
 H          6.3592688416       -2.6868785688       -1.0068844292
 H          5.5530722120       -2.8319990679        0.5486326010
 C          4.2448125615       -2.3000859397       -1.0889815892
 H          4.3160024416       -2.9881978503       -1.9344316086
 H          4.0067801010       -1.3152822301       -1.4976137399
 C          3.0790671118       -2.7689185295       -0.2180021486
 H          3.2416849423       -3.8064736492        0.0819268122
 H          2.1664468317       -2.7252699503       -0.8169833085
 C          2.8547588617       -1.9235716086        1.0421115308
 H          1.8861373119       -2.1933933886        1.4698817212
 H          3.6340499819       -2.1257503677        1.7764237008
 H          7.1172835312       -0.8777834775        0.2789619392
 H          6.0213235707       -0.2011024889       -0.9260287811
 H          5.2450148314       -0.7817645670        1.9657599495
 H          5.8406622807        0.7797697328        1.3770570182
 O          3.8837118202        1.6244887313        0.3553304579
 C          2.7071163899        2.2288950305       -0.0607871223
 O          2.8276982094        3.4314797603       -0.3733252633
 O          0.4701704311       -0.5910188901        0.3470214202
 C          0.2554307698        2.1285977692       -0.5411832018
 C         -0.8133072399        1.9439234796        0.5074055485
 C         -0.5435820498        2.3323666507        1.8177056082
 C         -1.4800097496        2.1480669011        2.8156424685
 C         -2.7006245394        1.5592850304        2.5329569692
 C         -2.9840137495        1.1808035393        1.2268789195
 C         -2.0501812297        1.3902690189        0.2209526892
 H         -2.3069774898        1.1069759580       -0.7849728006
 N         -4.2147293093        0.5948724186        0.9042757302
 S         -4.3452391891       -0.5085707924       -0.3407551689
 O         -4.3289951896        0.1745291066       -1.6109559595
 O         -5.5644520188       -1.2305852627       -0.0393110882
 C         -2.9541884886       -1.6173698318       -0.2178250884
 C         -2.7136931882       -2.2484121308        0.9853112721
 C         -1.6597284678       -3.1415762403        1.0729986426
 C         -0.8714589279       -3.3921473709       -0.0382108574
 C         -1.1279624184       -2.7530992219       -1.2394561778
 C         -2.1779184688       -1.8553947924       -1.3321370183
 H         -2.4060548191       -1.3301183131       -2.2467002487
 H         -0.5079301185       -2.9427957623       -2.1019325278
 H         -0.0466074776       -4.0837994905        0.0343316330
 H         -1.4510620775       -3.6350054295        2.0089961529
 H         -3.3459833081       -2.0384179304        1.8330620720
 H         -4.7999879791        0.3548454089        1.6900903105
 H         -3.4272140592        1.3981724407        3.3145522594
 H         -1.2546500895        2.4522638219        3.8268401782
 H          0.4185311301        2.7731048112        2.0427741077
 H          0.4731371394        3.2022490992       -0.6358196227
 C         -0.1374865502        1.5846800780       -1.8990878213
 C         -0.9771489407        2.4063468070       -2.8288630918
 C          0.4722427193        2.1754651573       -3.1328787319
 H          0.7309303095        1.5159652268       -3.9477486114
 H          1.1610709791        2.9974220577       -3.0012769126
 H         -1.7215300406        1.9070454362       -3.4313570913
 H         -1.2745676510        3.3892358271       -2.4954600825
 H         -0.2941241298        0.5114834780       -1.8847265105
