  62
        -98.93373215
 C         -2.5805053036       -1.3638201443        0.3221801285
 C         -2.8341383121       -0.5814062798       -0.8291176438
 C         -3.8812235161        0.4527226054       -0.7001196477
 C         -4.5201314022        0.6041317478        0.4718623450
 C         -5.5600863352        1.6313951553        0.8235772367
 C         -4.9078718423        2.8594657082        1.4810651715
 C         -4.4121787471        3.9262724480        0.5053148611
 H         -5.2712384095        4.4364201723        0.0645876378
 H         -3.8556214691        4.6648556556        1.0867296688
 C         -3.5158368628        3.4148876364       -0.6257696900
 H         -2.7982284142        2.6937799387       -0.2295899670
 H         -2.9434711099        4.2622234033       -1.0086792018
 C         -4.3058165076        2.7866121966       -1.7837133464
 H         -3.9807548504        3.2324692953       -2.7261405591
 H         -5.3603883306        3.0378231353       -1.6713497304
 C         -4.1520788176        1.2652771909       -1.9373392613
 H         -5.0442597120        0.8645297798       -2.4299757932
 H         -3.3078700279        1.0505621242       -2.6003837328
 H         -5.6337221482        3.3253007824        2.1505171359
 H         -4.0756202184        2.5067502206        2.0956501565
 H         -6.1364161766        1.9129266867       -0.0526684497
 H         -6.2276924776        1.1623374007        1.5492719199
 O         -4.2436296600       -0.1676730959        1.5581920997
 C         -3.2820994054       -1.1570498621        1.5140110712
 O         -3.1457048531       -1.7862097003        2.5818551793
 O         -2.2217867835       -0.7117285859       -1.9223160756
 C         -1.5504706380       -2.4814861429        0.3643498894
 C         -0.1715093383       -1.9519097257        0.6646001626
 C          0.6116505197       -2.5196860040        1.6623497505
 C          1.8853330349       -2.0404311557        1.9153247822
 C          2.4015689973       -0.9867015985        1.1826709540
 C          1.6269881739       -0.4118852565        0.1833784377
 C          0.3514441083       -0.8957207374       -0.0688125248
 H         -0.2410878994       -0.4565607531       -0.8580680202
 N          2.1383156798        0.6661663033       -0.5622877945
 S          3.6321017872        0.4514592058       -1.3020915314
 O          3.6442407039        1.3737567877       -2.4160970888
 O          3.8694993048       -0.9389385987       -1.6149844497
 C          4.7973662929        1.0089505338       -0.0765717724
 C          5.8282287122        0.1804148212        0.3212849706
 C          6.7295370770        0.6402403188        1.2690224967
 C          6.5851700888        1.9136299285        1.7980256088
 C          5.5457643452        2.7343898655        1.3856630819
 C          4.6420723759        2.2813291669        0.4379436107
 H          3.8227093663        2.8874695852        0.0889427365
 H          5.4365297954        3.7238839518        1.7996221999
 H          7.2866500413        2.2688741872        2.5362926522
 H          7.5383908992        0.0040660197        1.5906363810
 H          5.8968066642       -0.8040864085       -0.1133282273
 H          1.4719345730        1.0413613450       -1.2227937272
 H          3.3926186336       -0.6095455559        1.3754372852
 H          2.4826060053       -2.4908843050        2.6932018603
 H          0.2117466104       -3.3357411932        2.2463746609
 H         -1.8528170946       -3.1135171165        1.2140202449
 C         -1.5838936558       -3.3582452889       -0.8821594897
 C         -0.4813901685       -3.4180602643       -1.8925212197
 C         -0.7085859572       -4.5734667431       -0.9673836049
 H         -1.1249378839       -5.4858955053       -1.3663799461
 H          0.0104189838       -4.7231372741       -0.1759836015
 H         -0.7614200963       -3.5169380332       -2.9304586306
 H          0.3954250969       -2.8070755931       -1.7410873606
 H         -2.5914280869       -3.4601821750       -1.2730773037
