  62
        -98.94178851
 C         -1.4556080135       -1.6675415335       -0.6589048816
 C         -1.4524217740       -0.2952589508       -1.0127375789
 C         -2.6966688635        0.4404698625       -0.7285812211
 C         -3.7518180958       -0.2114500745       -0.2099398491
 C         -5.0592910381        0.4237097479        0.1634726732
 C         -5.0599998859        0.8681131992        1.6325289064
 C         -3.8289786289        1.6834923956        2.0282842346
 H         -3.9538406242        1.9736232084        3.0738390368
 H         -2.9451599679        1.0431217624        1.9764376386
 C         -3.5986469262        2.9364794748        1.1722348310
 H         -4.5180429727        3.1998092354        0.6481147796
 H         -3.3530739878        3.7698350120        1.8336638283
 C         -2.4541353367        2.8170420009        0.1639344566
 H         -2.2408933563        3.8164368959       -0.2221147849
 H         -1.5535014316        2.4619071846        0.6709325361
 C         -2.7124846150        1.9096069365       -1.0451436313
 H         -1.8979847361        2.0693679678       -1.7574995489
 H         -3.6525875245        2.1903692123       -1.5241526031
 H         -5.9624664596        1.4542078307        1.8159575895
 H         -5.0993412325       -0.0227044754        2.2638623058
 H         -5.2418420694        1.2773951016       -0.4861056881
 H         -5.8526801425       -0.3108542710        0.0148772479
 O         -3.7305494599       -1.5382328377        0.0795073677
 C         -2.5835848257       -2.2868857862       -0.1130684968
 O         -2.6940455621       -3.4840635082        0.2219402423
 O         -0.4802739072        0.2997418992       -1.5413229327
 C         -0.2421295681       -2.5671102895       -0.8412019371
 C          0.6943937207       -2.3949457396        0.3262881621
 C          0.9362418330       -3.4512243476        1.1976491007
 C          1.7577763885       -3.2834944879        2.2979428374
 C          2.3723011587       -2.0671452307        2.5344345637
 C          2.1390591941       -1.0053761103        1.6682874995
 C          1.2928432327       -1.1677040567        0.5817759651
 H          1.0967088028       -0.3321709947       -0.0716296771
 N          2.7501952602        0.2444134066        1.8677311655
 S          3.5456124290        0.9289339799        0.5528599574
 O          3.9940250395       -0.0930388917       -0.3641798457
 O          4.5867042404        1.7431268327        1.1489986505
 C          2.3678020456        2.0109104260       -0.2203247326
 C          1.7682116631        2.9806798400        0.5587413654
 C          0.8991558858        3.8750913717       -0.0422733446
 C          0.6495750270        3.7862821400       -1.4038238287
 C          1.2592001359        2.8067078629       -2.1695563954
 C          2.1296011456        1.9082746457       -1.5744252302
 H          2.6153471482        1.1240572046       -2.1321329837
 H          1.0549834340        2.7298739509       -3.2252477823
 H         -0.0284593455        4.4836963824       -1.8708881596
 H          0.4179218845        4.6366962760        0.5503943326
 H          1.9921489594        3.0187366784        1.6122303052
 H          3.3292161662        0.2949180775        2.6943516065
 H          3.0259804083       -1.9368136606        3.3841311180
 H          1.9304634376       -4.1097758499        2.9710022042
 H          0.4590868210       -4.4034905982        1.0158851348
 H         -0.6422014372       -3.5921467865       -0.7950834790
 C          0.4152342688       -2.4056817145       -2.2057176594
 C          1.8180912127       -1.9343258673       -2.4312667268
 C          1.4749144065       -3.3774374447       -2.6361549331
 H          1.4462746046       -3.7711818740       -3.6410871523
 H          1.8270432312       -4.0817270554       -1.8968065107
 H          1.9952649913       -1.3230498937       -3.3042464106
 H          2.4358344871       -1.6644252531       -1.5885450097
 H         -0.3053167158       -2.1159725496       -2.9642185364
