  62
        -98.94392061
 C         -0.0897808147       -2.2316320702        0.6040658409
 C          0.6595748287       -1.1943705662        1.2141806774
 C          2.1097415105       -1.2197721921        0.9621140635
 C          2.6290429586       -2.1499803268        0.1431787649
 C          4.0777131228       -2.2534535174       -0.2358931832
 C          4.3852654112       -1.4651212437       -1.5159175259
 C          3.8609358001       -0.0286437480       -1.5073711921
 H          4.1915018710        0.4412176757       -2.4371160086
 H          2.7679105402       -0.0366667186       -1.5326499479
 C          4.3319080018        0.8148268370       -0.3145150532
 H          5.2134891966        0.3595901046        0.1392453562
 H          4.6269945307        1.8000475979       -0.6821308228
 C          3.2607987012        1.0393242582        0.7541346759
 H          2.3341755215        1.3583487089        0.2703548489
 H          3.5914217295        1.8505960443        1.4081139689
 C          2.9401831432       -0.1684647835        1.6423866308
 H          3.8647517303       -0.5987185931        2.0332040844
 H          2.3402619182        0.1893900335        2.4841595259
 H          5.4676165971       -1.4563797584       -1.6612668225
 H          3.9327744163       -1.9870545914       -2.3624562165
 H          4.6885274559       -1.8834981860        0.5854911674
 H          4.3120967044       -3.3060722586       -0.4056057170
 O          1.8731608058       -3.1006576106       -0.4646762194
 C          0.5071316742       -3.1599713394       -0.2518583006
 O         -0.0644380615       -4.0863653805       -0.8647264554
 H         -1.1277123076        0.1618712987        0.0549012920
 C         -1.9326499013       -0.2672120165       -0.5176821305
 C         -2.3184307471       -1.5777791628       -0.2747764991
 C         -3.3597805566       -2.1173474350       -1.0198642071
 C         -3.9897790821       -1.3607001355       -1.9929740222
 C         -3.5822248631       -0.0645921735       -2.2528437671
 C         -2.5404874962        0.4831946905       -1.5117140918
 N         -2.1051529620        1.7974429823       -1.7329520877
 S         -0.4939289585        2.2197233391       -1.5551589886
 O         -0.2935819961        3.3032389507       -2.4971205478
 O          0.3810270348        1.0821607612       -1.7234220196
 C         -0.3483642177        2.8881112234        0.0900612689
 C         -1.3497027661        2.7454056612        1.0267934864
 C         -1.1606564482        3.2781456141        2.2926598077
 C          0.0147575171        3.9439539837        2.5983996463
 C          1.0062610654        4.0926553931        1.6412176643
 C          0.8237790692        3.5616327180        0.3753545178
 H          1.5663312940        3.6594707577       -0.4011155452
 H          1.9198038134        4.6150423188        1.8761342032
 H          0.1591433569        4.3501303514        3.5871790455
 H         -1.9328069623        3.1641113868        3.0364065464
 H         -2.2568742858        2.2240114729        0.7709000708
 H         -2.5250751801        2.2666052415       -2.5214000317
 H         -4.0602816886        0.5188165783       -3.0249718970
 H         -4.7971123311       -1.7896191069       -2.5669956936
 H         -3.6604378885       -3.1404627360       -0.8477288739
 C         -1.5940322506       -2.3854091996        0.7711179234
 H         -1.8015903028       -3.4487146993        0.5694159568
 C         -2.0702580814       -2.0888262518        2.1869354758
 C         -2.8734596129       -0.8801633896        2.5507451909
 C         -3.5234031809       -2.2289069271        2.5331784965
 H         -3.7881219025       -2.6918957259        3.4716405645
 H         -4.2075665490       -2.4425881237        1.7258407689
 H         -3.1251489566       -0.1843738406        1.7663119841
 H         -2.6654959908       -0.4108647259        3.4996212513
 H         -1.3581806740       -2.4330038897        2.9297764825
 O          0.1698852118       -0.2931110233        1.9416761778
