  62
        -98.92813753
 C         -1.7289093701       -1.1382917326       -0.5941141131
 C         -1.7437850009        0.0753514379        0.1351420516
 C         -3.0513664846        0.4889589979        0.6880644324
 C         -4.1307327036       -0.2830796716        0.4816048234
 C         -5.5485735222       -0.0146645697        0.9047659618
 C         -6.3271335149        0.6890054539       -0.2196574070
 C         -6.2148850149        2.2130399130       -0.2247200059
 H         -6.6970430088        2.5713912100       -1.1371407044
 H         -6.7747263537        2.6166414916        0.6215800364
 C         -4.7878723176        2.7652006421       -0.1739177843
 H         -4.1459519144        2.1912600917       -0.8445538776
 H         -4.8123616731        3.7904521970       -0.5483402084
 C         -4.1917842604        2.7691604164        1.2417260243
 H         -4.9881112179        2.5888471435        1.9638591494
 H         -3.7927258303        3.7611931523        1.4637036136
 C         -3.0476916007        1.7706627925        1.4759844526
 H         -2.0923249897        2.2453052757        1.2295978112
 H         -3.0020155313        1.5234282978        2.5423667250
 H         -5.9713284369        0.2900454001       -1.1729574425
 H         -7.3836551259        0.4283810222       -0.1304116002
 H         -6.0073968403       -0.9883599519        1.0889503144
 H         -5.5738084762        0.5638186928        1.8234434594
 O         -4.0716233500       -1.4456703027       -0.2243437985
 C         -2.8864521837       -1.9022725872       -0.7652431150
 O         -2.9891986948       -2.9881255400       -1.3726500792
 O         -0.7333461639        0.7981746395        0.3203895857
 C         -0.4583865742       -1.7186251052       -1.2080116650
 C          0.5374941975       -2.0329869571       -0.1171562644
 C          0.4306760457       -3.2915884089        0.4758781493
 C          1.2725781359       -3.6752452913        1.5006477024
 C          2.2619480438       -2.8185613686        1.9470127095
 C          2.3833361344       -1.5606234576        1.3679781439
 C          1.5155648023       -1.1678822284        0.3544356853
 H          1.5922105426       -0.1638854220       -0.0207650575
 N          3.4290841329       -0.7212498860        1.7629978907
 S          3.4657292123        0.9342789984        1.5753805232
 O          4.6637278320        1.3210777639        2.2949418602
 O          2.2485103975        1.5740563677        2.0112791166
 C          3.7442674922        1.1827904782       -0.1638146106
 C          4.6329152479        0.3527633817       -0.8187380647
 C          4.8829862561        0.5696754530       -2.1638634043
 C          4.2509412777        1.6114143157       -2.8257285704
 C          3.3676392000        2.4396634994       -2.1523081868
 C          3.1096147154        2.2255514063       -0.8071452949
 H          2.4158752370        2.8340233626       -0.2479182916
 H          2.8736074667        3.2473505438       -2.6679555118
 H          4.4459182398        1.7779738209       -3.8731619462
 H          5.5671900062       -0.0747460527       -2.6919333804
 H          5.1058554110       -0.4462588945       -0.2722549337
 H          3.9669695480       -1.0322924433        2.5571291571
 H          2.9337408884       -3.1167156687        2.7374216981
 H          1.1638851353       -4.6506507561        1.9502028724
 H         -0.3387769569       -3.9667264717        0.1273168063
 H         -0.7831995708       -2.6940932927       -1.6020752212
 C         -0.0041282668       -0.9413567648       -2.4378024070
 C          0.5821056112        0.4367459601       -2.4485034313
 C          1.4321656146       -0.7400170775       -2.8186781573
 H          1.7041828043       -0.8642041345       -3.8559475834
 H          2.1907912915       -1.0625384576       -2.1233153477
 H          0.2623423124        1.1031592608       -3.2373236273
 H          0.7335607214        0.9374828441       -1.5073170079
 H         -0.6853439527       -1.1492691318       -3.2601604017
