  62
        -98.93935774
 C         -2.5535780202       -0.0052586305        0.5377532698
 C         -2.3531136702        0.7471769596       -0.6438319201
 C         -1.8635087303        2.1189887697       -0.4573419399
 C         -1.5998225803        2.5674981895        0.7825113801
 C         -1.0671985604        3.9272800495        1.1468082903
 C          0.3588315696        4.2231335397        0.6414133703
 C          0.4055617995        5.0080471298       -0.6758627596
 H         -0.5333386705        5.5504167398       -0.7947999696
 H          1.1956145795        5.7588300999       -0.6097715695
 C          0.6784446196        4.1794105700       -1.9348705597
 H          0.4247576296        4.7955883801       -2.8007650096
 H          1.7461783396        3.9564315601       -1.9887883697
 C         -0.0681389603        2.8482317499       -2.0385680699
 H          0.0470081597        2.4729549001       -3.0579592099
 H          0.3989454397        2.1063658799       -1.3859313099
 C         -1.5678125603        2.9217291498       -1.6908852899
 H         -1.8844882304        3.9557283698       -1.5607469397
 H         -2.1547649303        2.4772678799       -2.4975072999
 H          0.9056980996        3.2837223997        0.5476097102
 H          0.8569167395        4.8133104296        1.4124869104
 H         -1.7553205905        4.6904962895        0.7763827803
 H         -1.0790908804        3.9657709594        2.2379212803
 O         -1.8149803603        1.8138814094        1.8966873900
 C         -2.2710979702        0.5104612794        1.8010214099
 O         -2.3944266302       -0.0748039208        2.8984774798
 H         -0.3459193901       -1.2999511404        0.8862620497
 C         -0.5484252900       -1.9449852303        0.0423386496
 C         -1.8646412000       -2.1858253604       -0.3335516304
 C         -2.1046534100       -3.0342772603       -1.4051762505
 C         -1.0456981399       -3.5907105601       -2.1032899506
 C          0.2622173701       -3.3069164401       -1.7580834106
 C          0.5119584300       -2.4773651502       -0.6689576305
 N          1.8280139300       -2.1885376601       -0.2680918404
 S          2.1458424999       -0.7283894502        0.5154156197
 O          1.8011502599       -0.8666655604        1.9091880197
 O          1.5419463398        0.3791202198       -0.1904720801
 C          3.9206230799       -0.6797878801        0.3479468298
 C          4.6758924899       -1.4989258001        1.1663318797
 C          6.0541914399       -1.5009650200        1.0245726897
 C          6.6515137299       -0.6879620399        0.0723292298
 C          5.8811258598        0.1304099202       -0.7397316401
 C          4.5012191398        0.1351827901       -0.6047237202
 H          3.8616854698        0.7568196201       -1.2107489401
 H          6.3481769298        0.7634890603       -1.4767823001
 H          7.7245636099       -0.6907287598       -0.0356782302
 H          6.6560831400       -2.1345573800        1.6557578896
 H          4.1664224100       -2.1046748602        1.8975161296
 H          2.5112810700       -2.3840198800       -0.9869212104
 H          1.0843345601       -3.7205089200       -2.3218850006
 H         -1.2438810399       -4.2401553400       -2.9424767907
 H         -3.1178083299       -3.2447824503       -1.7057954506
 C         -2.9461194701       -1.4697429305        0.4409730796
 H         -2.9456590500       -1.8549027806        1.4716284696
 C         -4.3317046500       -1.6311982105       -0.1450777104
 C         -5.1562953900       -2.8344604806        0.1980697195
 C         -5.5187443101       -1.4928974707        0.7583438796
 H         -6.3983988001       -0.9941560807        0.3804520797
 H         -5.3242667901       -1.3024997808        1.8041124697
 H         -5.7928275499       -3.2580545906       -0.5639002306
 H         -4.7230564699       -3.5617966007        0.8680096694
 H         -4.4110889101       -1.2188848804       -1.1440230303
 O         -2.5743061802        0.2988929998       -1.7996943202
