  62
        -98.94243205
 C         -1.3912429945       -1.2539076976       -0.0026885647
 C         -2.4665199564       -0.9021860769        0.8440000128
 C         -3.1189193431        0.3838455310        0.5617066726
 C         -2.6476880894        1.1517678422       -0.4380785769
 C         -3.2504902779        2.4504707112       -0.8934072468
 C         -4.5104292105        2.1795463373       -1.7408544303
 C         -5.8124925785        2.6785943000       -1.1141435171
 H         -5.8664137673        3.7635556971       -1.2250241364
 H         -6.6368371429        2.2467541056       -1.6855523164
 C         -6.0080085486        2.3498325275        0.3690311383
 H         -7.0615123563        2.5245644903        0.5975601756
 H         -5.4367005142        3.0512699514        0.9790853171
 C         -5.6426436499        0.9217318531        0.7936533459
 H         -5.7046001296        0.2398847685       -0.0546923300
 H         -6.3796612028        0.5865929691        1.5262511540
 C         -4.2592244441        0.7839794186        1.4570428181
 H         -4.0059918149        1.7137956403        1.9749544595
 H         -4.3110850005       -0.0065167787        2.2120301496
 H         -4.5787587583        1.1038906465       -1.9159345395
 H         -4.3988662421        2.6509482399       -2.7183737160
 H         -2.4944142011        2.9682554688       -1.4842135807
 H         -3.4919706625        3.0642012731       -0.0282559769
 O         -1.5994482739        0.7882552461       -1.2194503478
 C         -0.9365804057       -0.4094479451       -1.0141367602
 O          0.0176192215       -0.6114249422       -1.7903824292
 O         -2.8604092966       -1.6314768463        1.7963680192
 C         -0.6638362768       -2.5647570862        0.2286193121
 C          0.8084021172       -2.3235768104        0.4549188904
 C          1.7976035243       -3.1738146932       -0.0251324563
 C          3.1347122497       -2.9005840272        0.2064237207
 C          3.5152177518       -1.7655852737        0.8985991222
 C          2.5331146912       -0.9135394324        1.3888450711
 C          1.1953870391       -1.2102680230        1.1899338631
 H          0.4480797861       -0.5346080111        1.5805009594
 N          2.8616365205        0.2785310596        2.0726815598
 S          2.4744570796        1.6995108620        1.2661003840
 O          3.0054143741        2.7601500821        2.0967980642
 O          1.0599984842        1.7453722351        1.0012149448
 C          3.4232845960        1.5979703138       -0.2414579974
 C          4.6737173017        2.1869842608       -0.2662912580
 C          5.4645949646        2.0391527925       -1.3935452727
 C          4.9983909243        1.2962019962       -2.4681366052
 C          3.7433752227        0.7096666100       -2.4252017745
 C          2.9423215046        0.8569202035       -1.3021175862
 H          1.9598106690        0.4121963093       -1.2539856853
 H          3.3725637136        0.1313679454       -3.2562466632
 H          5.6149684471        1.1741755826       -3.3447256908
 H          6.4396424091        2.4977818710       -1.4290702740
 H          4.9916102996        2.7559070303        0.5926745587
 H          3.8315116440        0.3237336471        2.3570844663
 H          4.5582631010       -1.5365126162        1.0574676877
 H          3.8902945836       -3.5707877039       -0.1736133089
 H          1.5201292864       -4.0509612488       -0.5865770193
 H         -1.0924225236       -2.9792471744        1.1539528509
 C         -0.9431281444       -3.5252646505       -0.9104468303
 C         -1.0185488531       -5.0016878333       -0.6627299727
 C         -2.2669268654       -4.2261341596       -0.9534979426
 H         -2.7498821174       -4.3591872683       -1.9099135249
 H         -2.9530526474       -4.0333989763       -0.1415708407
 H         -0.6464790048       -5.6715638803       -1.4232427839
 H         -0.8643630560       -5.3485096343        0.3478250816
 H         -0.5282564040       -3.1817831422       -1.8516631438
