  62
        -98.94286499
 C          1.1529630953        1.7009525432        0.1951796461
 C          1.6071519227        0.8382014243        1.2175882541
 C          2.8158681361        0.0481926676        0.9278679394
 C          3.3955011439        0.1671269369       -0.2790430637
 C          4.5796982490       -0.5942336712       -0.8073554977
 C          4.1182701667       -1.8524863136       -1.5631612311
 C          3.9596483572       -3.1008544836       -0.6974581167
 H          3.5315142100       -3.8813341329       -1.3308571873
 H          4.9454734714       -3.4417459010       -0.3722183433
 C          3.0650588998       -2.9310865683        0.5329253748
 H          2.1643287052       -2.3788310774        0.2549605149
 H          2.7384165830       -3.9256747083        0.8450483216
 C          3.7803375104       -2.2509590095        1.7099277718
 H          4.8524217993       -2.2376508934        1.5130338913
 H          3.6387700122       -2.8513115093        2.6113733646
 C          3.2994083923       -0.8332077279        2.0471692330
 H          2.4508777766       -0.8949612892        2.7362191397
 H          4.0973688591       -0.3063852523        2.5822011040
 H          3.1642234120       -1.6263474626       -2.0476557106
 H          4.8415529718       -2.0753715251       -2.3506422002
 H          5.0867651284        0.0692531905       -1.5110917829
 H          5.2676115788       -0.8471370138       -0.0059328403
 O          2.9177365676        1.0009743740       -1.2439332809
 C          1.7839471728        1.7701994926       -1.0462742648
 O          1.4514775268        2.4601630985       -2.0290569358
 O          1.0167805466        0.7213653747        2.3270085133
 C         -0.1179692983        2.4978065798        0.4161667212
 C         -1.2065125824        2.0347709697       -0.5234928013
 C         -2.1922663338        2.8780490621       -1.0223553442
 C         -3.1784664235        2.3819645862       -1.8577661432
 C         -3.2187891387        1.0417556584       -2.1988287450
 C         -2.2390929340        0.1897298326       -1.7022204880
 C         -1.2499775295        0.6933901136       -0.8739835140
 H         -0.4801829975        0.0269564344       -0.5198665564
 N         -2.2234502200       -1.1747883087       -2.0237253634
 S         -1.6641325085       -2.2907033000       -0.9115246029
 O         -0.2302717477       -2.2135888883       -0.7923868974
 O         -2.1901875186       -3.5532376453       -1.3860680938
 C         -2.4680293555       -1.8449136008        0.6171417317
 C         -3.8338631693       -2.0450481493        0.6899345460
 C         -4.5105573837       -1.6640059529        1.8360955759
 C         -3.8143663767       -1.0837917919        2.8863159305
 C         -2.4443171242       -0.8958587697        2.8011557455
 C         -1.7608124954       -1.2800556431        1.6576263077
 H         -0.6951293977       -1.1356382691        1.5731559792
 H         -1.8920766565       -0.4437766541        3.6097491987
 H         -4.3407646554       -0.7788601287        3.7769891287
 H         -5.5756026607       -1.8153134696        1.9065977342
 H         -4.3367815929       -2.5087551174       -0.1431308684
 H         -3.0276087387       -1.5092591025       -2.5327571169
 H         -3.9891738392        0.6591813117       -2.8504059657
 H         -3.9326201384        3.0494485662       -2.2460348734
 H         -2.1826778045        3.9244097619       -0.7642867114
 H         -0.4388944709        2.2555049659        1.4414441245
 C          0.1517024650        3.9860518545        0.3311318203
 C         -0.6162366320        4.9476882557        1.1868831759
 C          0.8239987646        4.6642244519        1.4863029670
 H          1.5583350723        5.4281493058        1.2797413940
 H          1.0585266053        4.0561692298        2.3479608577
 H         -0.8709374137        5.9128164249        0.7754829868
 H         -1.3591708716        4.5405999323        1.8559691730
 H          0.4358492695        4.2992645157       -0.6670333788
