  62
        -98.93910785
 C          1.9142864553        1.3671177742        0.0929524534
 C          2.3010264924        0.5351708921        1.1693385681
 C          2.9544970327       -0.7370845253        0.8187463728
 C          3.1317344175       -1.0414044440       -0.4787454967
 C          3.7527983716       -2.2849541642       -1.0523230268
 C          2.6743522389       -3.3290564383       -1.3847426260
 C          2.3000794772       -4.2533441981       -0.2275210048
 H          1.4502981060       -4.8565666642       -0.5532166064
 H          3.1290289656       -4.9365923628       -0.0312480965
 C          1.9318831416       -3.5430181023        1.0777443742
 H          1.3005394295       -2.6791826108        0.8604494796
 H          1.3394609785       -4.2330238525        1.6815857349
 C          3.1599941232       -3.1065019787        1.8915614368
 H          4.0483110261       -3.5865629591        1.4814427909
 H          3.0607666115       -3.4673809374        2.9175384240
 C          3.3896605573       -1.5902448277        1.9790248238
 H          4.4510670066       -1.4014509923        2.1728213401
 H          2.8429597156       -1.1886479282        2.8382326443
 H          3.0281709998       -3.9471645161       -2.2122233254
 H          1.7883693277       -2.7899571767       -1.7280454072
 H          4.2446233777       -1.9849521232       -1.9800091395
 H          4.5001534626       -2.6891597430       -0.3760150426
 O          2.7009810436       -0.2334971763       -1.4850651330
 C          2.0720199103        0.9742604412       -1.2364408386
 O          1.7157117804        1.5839727134       -2.2610118188
 O          2.1045032134        0.8409810513        2.3781345505
 C          1.2476904265        2.6965256710        0.4078826987
 C         -0.2163038399        2.5909171188        0.0588517050
 C         -0.8105871422        3.2643379470       -0.9989859588
 C         -2.1540661582        3.0761494282       -1.2786737453
 C         -2.9308747676        2.2288378933       -0.5100736339
 C         -2.3444727439        1.5490615923        0.5516345186
 C         -0.9977217029        1.7321410467        0.8242720541
 H         -0.5369979692        1.2027731445        1.6487674707
 N         -3.1221774460        0.7034019616        1.3660432172
 S         -4.0401843514       -0.5128261343        0.6814644522
 O         -5.0341488342        0.0723933775       -0.1814094651
 O         -4.5331681804       -1.2857808235        1.7976163029
 C         -2.9073559441       -1.5003777710       -0.2788992444
 C         -2.3867412330       -2.6481381648        0.2852056543
 C         -1.5021011388       -3.4172048690       -0.4526660889
 C         -1.1461484466       -3.0205543321       -1.7325791092
 C         -1.6639987186       -1.8562559852       -2.2787671062
 C         -2.5556174972       -1.0865774971       -1.5483596121
 H         -2.9858134525       -0.1830656388       -1.9482882406
 H         -1.3762855890       -1.5432171414       -3.2698768804
 H         -0.4651562071       -3.6246932401       -2.3115203631
 H         -1.0953115818       -4.3211018596       -0.0289193083
 H         -2.6979620500       -2.9249323376        1.2796777696
 H         -2.6157599766        0.3409320394        2.1612349911
 H         -3.9777959920        2.0778729618       -0.7182192432
 H         -2.6047905183        3.6028273138       -2.1063314048
 H         -0.2212195095        3.9259138222       -1.6115366403
 H          1.3244575068        2.8073159591        1.4988662875
 C          1.9606431907        3.8575210126       -0.2490986972
 C          1.7392064974        5.2461731994        0.2688769920
 C          3.0514204576        4.5605444584        0.4996624896
 H          3.9163051941        4.9009099693       -0.0497124355
 H          3.2785057428        4.2123566613        1.4968539644
 H          1.7029121073        6.0612252711       -0.4376358695
 H          1.0735048095        5.3638455874        1.1105999261
 H          2.0972231892        3.7264949019       -1.3155059590
