  62
        -98.94271239
 C         -1.8057836615       -0.8896023079        0.1934856057
 C         -3.1540338353       -1.2894570278        0.3775211412
 C         -4.1185614476       -0.2155783024        0.6491327997
 C         -3.6771696171        1.0503571690        0.7594712741
 C         -4.5541290475        2.2486563466        0.9755856261
 C         -4.9858983440        2.8671126442       -0.3616003255
 C         -5.5382434390        1.8523516270       -1.3628315559
 H         -5.8367273659        2.4059272939       -2.2557676084
 H         -4.7368769961        1.1723349843       -1.6615043214
 C         -6.7303279063        1.0342685355       -0.8466964267
 H         -7.4926526737        0.9958415651       -1.6276976639
 H         -7.1753566436        1.5317526417        0.0157941603
 C         -6.3964952915       -0.4129471874       -0.4794304390
 H         -5.8685807088       -0.8894817926       -1.3097310063
 H         -7.3362489826       -0.9534103162       -0.3380811217
 C         -5.5632174541       -0.6023729490        0.7944302225
 H         -6.0270662781       -0.0610244845        1.6214989443
 H         -5.5648697975       -1.6690971853        1.0374214885
 H         -5.7402377132        3.6301889806       -0.1616072694
 H         -4.1195182413        3.3556445850       -0.8134888106
 H         -5.4294861906        1.9529700684        1.5506142078
 H         -3.9903767873        2.9902471227        1.5439350133
 O         -2.3693054705        1.3882815769        0.6403610621
 C         -1.4003088284        0.4364245270        0.3463594622
 O         -0.2499929810        0.9021521443        0.2614401112
 O         -3.5312058620       -2.4904632065        0.3215882834
 C         -0.7899067038       -1.9704505508       -0.1262546420
 C          0.4430569470       -1.8182104733        0.7293701939
 C          0.3015204826       -1.8495678273        2.1150945173
 C          1.4003248751       -1.7185739131        2.9404055597
 C          2.6660459725       -1.5596819851        2.4028561524
 C          2.8215931233       -1.5364217183        1.0224139264
 C          1.7128253893       -1.6692151909        0.1950683631
 H          1.8608503435       -1.6315181646       -0.8705656060
 N          4.1038054695       -1.4320587679        0.4600947931
 S          4.4794152583       -0.4608957836       -0.8454412833
 O          3.6401232129       -0.7898361951       -1.9683987910
 O          5.9004910003       -0.6574012728       -1.0343306937
 C          4.1913784015        1.2152993499       -0.3063914171
 C          2.8975288431        1.6615518409       -0.1276946144
 C          2.6977278512        2.9573145516        0.3237217820
 C          3.7820744216        3.7801989735        0.5841261540
 C          5.0757520482        3.3149082036        0.4000284418
 C          5.2842802417        2.0199977982       -0.0448833121
 H          6.2711300052        1.6159999517       -0.2034058888
 H          5.9190475186        3.9553637858        0.6030019328
 H          3.6172324665        4.7878285513        0.9324116797
 H          1.6856198248        3.3000491916        0.4696868955
 H          2.0564750502        1.0164568123       -0.3245426274
 H          4.8502723154       -1.3923398767        1.1390385790
 H          3.5264456810       -1.4590847183        3.0469422376
 H          1.2730831081       -1.7386478362        4.0123906902
 H         -0.6877230864       -1.9722122742        2.5354892919
 H         -1.2885371183       -2.9094719765        0.1696147410
 C         -0.4733257515       -2.0978075943       -1.6091049281
 C         -1.4645723450       -1.6959703873       -2.6587798821
 C         -0.2061368294       -0.9046255407       -2.4749388874
 H          0.5723242410       -0.9770549860       -3.2209001711
 H         -0.2745190106        0.0698125601       -2.0172600435
 H         -1.5625938432       -2.3171365223       -3.5364018756
 H         -2.3950488026       -1.2570321715       -2.3282953726
 H          0.1107243885       -2.9881390730       -1.8237328156
