  62
        -98.94018126
 C         -2.0576112878       -1.4647925068        0.5102644073
 C         -2.0538537076       -0.2935687889        1.3113227726
 C         -3.0901540176        0.7027912359        1.0186278492
 C         -3.9741746121        0.4570776445        0.0347831156
 C         -5.0336228707        1.4154223476       -0.4245715391
 C         -4.5148299834        2.3078042470       -1.5614723936
 C         -3.1593016661        2.9544427929       -1.2741658927
 H         -2.3959700197        2.1747147636       -1.2178380890
 H         -2.9136815994        3.5836166337       -2.1323201944
 C         -3.1175846689        3.7977656512        0.0078619445
 H         -2.6062364990        4.7383636497       -0.2074551818
 H         -4.1323212940        4.0479397751        0.3196343570
 C         -2.3760132976        3.1407581919        1.1735083711
 H         -2.2106214272        3.8998215332        1.9426862790
 H         -1.3983708181        2.7902250500        0.8350374370
 C         -3.0955439620        1.9614143797        1.8392712791
 H         -4.1159814640        2.2479280623        2.1014516124
 H         -2.5582522620        1.7204103400        2.7611342019
 H         -5.2571852383        3.0842845952       -1.7555529526
 H         -4.4184201359        1.6976668801       -2.4625487098
 H         -5.8868577744        0.8396447508       -0.7871026494
 H         -5.3529042227        2.0278153565        0.4164900751
 O         -3.9634592495       -0.6841094810       -0.6966870944
 C         -2.9949410591       -1.6641460128       -0.5040719375
 O         -3.0994772586       -2.6271811712       -1.2844803038
 O         -1.2158963496       -0.0950667652        2.2318948524
 C         -0.9479803129       -2.4644771380        0.7868363790
 C          0.2675929183       -2.0665044259       -0.0109340864
 C          0.2050100583       -1.9382727854       -1.3956743967
 C          1.3161298141       -1.5329680354       -2.1117980019
 C          2.5029032681       -1.2325149477       -1.4650032741
 C          2.5684466990       -1.3358747827       -0.0821770132
 C          1.4552729292       -1.7585844418        0.6344172302
 H          1.5075798919       -1.8281971322        1.7121785602
 N          3.7619150583       -1.0108688928        0.5847097946
 S          4.5496725013        0.4031655747        0.1558356884
 O          5.2517544528        0.2030001554       -1.0869103338
 O          5.3670241867        0.7368604311        1.2999289066
 C          3.2580359596        1.6136070716       -0.0619338426
 C          2.9434948347        2.0699924890       -1.3255933202
 C          1.9119982436        2.9841134201       -1.4694104338
 C          1.2175656082        3.4240012677       -0.3534245139
 C          1.5482420464        2.9588446190        0.9104077814
 C          2.5753422082        2.0419046950        1.0593103043
 H          2.8600287426        1.6653410071        2.0286453354
 H          1.0061598234        3.2997396245        1.7780460582
 H          0.4142373845        4.1350772989       -0.4677191796
 H          1.6520025517        3.3492928433       -2.4499141248
 H          3.5125176034        1.7101693740       -2.1670518102
 H          3.7030944146       -1.0963094331        1.5889993679
 H          3.3776538268       -0.9190995723       -2.0108350717
 H          1.2581977478       -1.4463470323       -3.1862573742
 H         -0.7253377091       -2.1574874718       -1.8985840407
 H         -0.7032451345       -2.3225509154        1.8515077518
 C         -1.3556742427       -3.9183940449        0.6071461602
 C         -0.7732349992       -4.8241422600       -0.4322587971
 C         -0.4029532035       -5.0067133779        1.0069825619
 H         -0.7858022990       -5.8636879094        1.5400757623
 H          0.5913134585       -4.7084799643        1.3054132249
 H         -1.4349942975       -5.5400397770       -0.8953248559
 H         -0.0264303577       -4.4277781687       -1.1018327652
 H         -2.4016066648       -4.0793323383        0.8452515278
