  62
        -98.94627473
 C          1.5372687840        1.4777637938       -0.0611766213
 C          1.4938497322        0.1086606473        0.2985804973
 C          2.7784628502       -0.4834583114        0.6928989654
 C          3.8857163592        0.2796410582        0.7257976282
 C          5.2631565019       -0.1787363562        1.1222178269
 C          6.0479423274       -0.8501797122       -0.0133818377
 C          5.5682874532       -2.2504363834       -0.3983440408
 H          6.3354154766       -2.6847818701       -1.0426515008
 H          5.5065194774       -2.8703595407        0.4965377932
 C          4.2254138459       -2.2783357238       -1.1418368860
 H          4.3030445990       -2.9409454434       -2.0068958063
 H          4.0006457842       -1.2797091889       -1.5235514624
 C          3.0443601673       -2.7640125055       -0.3011936094
 H          3.1960879562       -3.8109810592       -0.0296359900
 H          2.1405902752       -2.6969511944       -0.9112591482
 C          2.8076616045       -1.9541327792        0.9798853529
 H          1.8304417781       -2.2279572502        1.3849394636
 H          3.5742285552       -2.1844199632        1.7192710523
 H          7.0893215440       -0.9221595600        0.3091618140
 H          6.0171769338       -0.2002031392       -0.8910151564
 H          5.1927754787       -0.8606328886        1.9701495283
 H          5.8095985405        0.7127896110        1.4374999303
 O          3.8748574355        1.6034988349        0.4111185979
 C          2.7097421154        2.2290983217       -0.0062174324
 O          2.8450177257        3.4387106634       -0.2834498025
 O          0.4439709806       -0.5811365032        0.2929300464
 C          0.2652229951        2.1630240676       -0.5273577240
 C         -0.8165011850        1.9691309527        0.5060674902
 C         -0.5670102071        2.3629717154        1.8188184843
 C         -1.5149682273        2.1740246441        2.8049430127
 C         -2.7268533397        1.5745659199        2.5076006397
 C         -2.9889234158        1.1878621475        1.1994429652
 C         -2.0434395736        1.4012049640        0.2052530747
 H         -2.2832802038        1.1090529862       -0.8023762866
 N         -4.2109328843        0.5910326159        0.8631498980
 S         -4.3144223307       -0.5303194917       -0.3684235755
 O         -4.2725105081        0.1340757582       -1.6478805900
 O         -5.5394494427       -1.2487672462       -0.0815557875
 C         -2.9278534371       -1.6388905039       -0.2011387868
 C         -2.7032337509       -2.2413161270        1.0195981735
 C         -1.6561283648       -3.1387973541        1.1397764207
 C         -0.8597800740       -3.4231345285        0.0424974983
 C         -1.1004455142       -2.8123889619       -1.1765494855
 C         -2.1425126974       -1.9095428401       -1.3014077626
 H         -2.3573979992       -1.4047182946       -2.2305135624
 H         -0.4742324629       -3.0283314325       -2.0282311170
 H         -0.0405448965       -4.1185122747        0.1394666500
 H         -1.4596266869       -3.6094928113        2.0900770208
 H         -3.3417533326       -2.0062386852        1.8560209995
 H         -4.8064780531        0.3552038343        1.6426002403
 H         -3.4633180457        1.4115465514        3.2795091484
 H         -1.3061138951        2.4839786124        3.8179050521
 H          0.3882049188        2.8130432005        2.0547232697
 H          0.4960651365        3.2358533934       -0.5959712756
 C         -0.1178746221        1.6540657018       -1.9013600470
 C         -0.9512754246        2.5005950506       -2.8142928707
 C          0.5000170057        2.2773370051       -3.1149317569
 H          0.7638458447        1.6398790223       -3.9455486624
 H          1.1881665437        3.0952125894       -2.9569569811
 H         -1.6915328491        2.0173298536       -3.4345789132
 H         -1.2507862411        3.4741880948       -2.4564341828
 H         -0.2750625832        0.5809845970       -1.9171230424
