  62
        -98.93398209
 C         -2.3075395521       -0.4172093305        0.4202373064
 C         -3.4685116883       -0.3858981279        1.2333252152
 C         -4.5312441771        0.5550847102        0.8411765956
 C         -4.3317217691        1.3543332928       -0.2206428083
 C         -5.2991851162        2.3350109511       -0.8230669080
 C         -6.0984523779        1.6773455208       -1.9610526340
 C         -7.3682679414        0.9498388213       -1.5207111396
 H         -8.1154235781        1.6854198661       -1.2154691026
 H         -7.7623002973        0.4264548006       -2.3949723347
 C         -7.1852071749       -0.0604211546       -0.3849903794
 H         -8.0271289909       -0.7548521552       -0.4161776722
 H         -6.2791549981       -0.6451491829       -0.5548977962
 C         -7.1330581776        0.5942430806        1.0035145072
 H         -7.8417427131        0.0926930620        1.6657764731
 H         -7.4659914429        1.6287634408        0.9214490328
 C         -5.7654257301        0.5458935710        1.7013997351
 H         -5.6879484926       -0.3754233985        2.2872773919
 H         -5.6993442012        1.3743043973        2.4145773125
 H         -5.4341732559        0.9793440423       -2.4773767978
 H         -6.3832625680        2.4480813524       -2.6801035355
 H         -5.9592653538        2.7424443739       -0.0630978785
 H         -4.7000700977        3.1460886962       -1.2420401782
 O         -3.1816433954        1.3296286794       -0.9459049636
 C         -2.1441759926        0.4540931002       -0.6577791993
 O         -1.1709812763        0.5632528939       -1.4255169746
 O         -3.6151835564       -1.1214355627        2.2463137729
 C         -1.2174742769       -1.4022807433        0.8038784660
 C          0.1223842439       -0.7161144663        0.8665575745
 C          0.4194643574        0.0962599979        1.9567170516
 C          1.6391479594        0.7398844120        2.0478796481
 C          2.5872695116        0.5908163866        1.0509164887
 C          2.2975583892       -0.2099648131       -0.0448247188
 C          1.0759437201       -0.8637244973       -0.1282034555
 H          0.8571801534       -1.4715970644       -0.9928437248
 N          3.2574455271       -0.3512080495       -1.0663521532
 S          4.7424455723       -1.0007388224       -0.6262446030
 O          5.2810891627       -1.5868584605       -1.8345379192
 O          4.6123453148       -1.8833950174        0.5111617063
 C          5.7214111863        0.4186950424       -0.1836767658
 C          6.2414485146        0.5252452600        1.0912794921
 C          7.0066786323        1.6357515914        1.4120429725
 C          7.2374465719        2.6140193890        0.4570019730
 C          6.7097793662        2.4907229551       -0.8199034995
 C          5.9448437760        1.3826369322       -1.1472534529
 H          5.5197876457        1.2466206997       -2.1278026450
 H          6.8911872458        3.2537928340       -1.5596790145
 H          7.8321746568        3.4778462236        0.7090146155
 H          7.4183690333        1.7331865530        2.4037730835
 H          6.0317801796       -0.2584848897        1.8015575739
 H          2.8980734293       -0.8151056207       -1.8884317129
 H          3.5390057727        1.0933491951        1.1113662740
 H          1.8544452036        1.3646920781        2.9013627756
 H         -0.3226554289        0.2174140216        2.7340844197
 H         -1.4836182434       -1.7143491514        1.8271138372
 C         -1.1917392575       -2.6704358408       -0.0374336998
 C         -2.4691598356       -3.3039881946       -0.4987055384
 C         -1.5326683075       -2.6943111563       -1.4961733913
 H         -0.9699591254       -3.3556323580       -2.1396673951
 H         -1.8108440994       -1.7642499170       -1.9665698187
 H         -2.5557610160       -4.3793392634       -0.4607385926
 H         -3.3889235239       -2.7825230888       -0.2772667567
 H         -0.4063906229       -3.3478905935        0.2864572387
