  62
        -98.94320124
 C         -0.7709872905       -1.8918824898        0.1637554967
 C         -1.4419909406       -1.1645342319        1.1717554984
 C         -2.6990063157       -0.5022708075        0.7817625824
 C         -3.1324861578       -0.6232877681       -0.4850277555
 C         -4.3402905302        0.0225717028       -1.1061447450
 C         -3.9621255353        1.3635874216       -1.7597957653
 C         -4.0529889125        2.5750776700       -0.8343012940
 H         -3.6667642549        3.4338422069       -1.3882994980
 H         -5.1008189901        2.7748837185       -0.5980441411
 C         -3.2622392154        2.4423827812        0.4691334372
 H         -2.2905744742        1.9971693669        0.2449479776
 H         -3.0707338465        3.4479660808        0.8500394641
 C         -4.0007473609        1.6320887890        1.5450777435
 H         -5.0409089930        1.5102083286        1.2428603173
 H         -4.0140176942        2.2012642480        2.4770831912
 C         -3.3968785468        0.2598806457        1.8756782497
 H         -2.6393819809        0.3758265271        2.6576117700
 H         -4.1809096960       -0.3795278306        2.2958618772
 H         -2.9398786661        1.2821109803       -2.1407140719
 H         -4.6192146876        1.5369774749       -2.6148376210
 H         -4.6905052374       -0.6586638955       -1.8845305277
 H         -5.1307438969        0.1525703435       -0.3724584777
 O         -2.4644271640       -1.3496368968       -1.4229377934
 C         -1.2640704395       -1.9777288768       -1.1381362550
 O         -0.7519009036       -2.5740904767       -2.1049475693
 O         -1.0017788360       -1.0585879131        2.3494696546
 C          0.5694377461       -2.5229650505        0.4834253885
 C          1.6725819657       -1.8928593864       -0.3353122136
 C          2.8409913835       -2.5682433772       -0.6695425443
 C          3.8302123707       -1.9338067972       -1.4009278998
 C          3.6868482591       -0.6189326165       -1.8065331494
 C          2.5224784886        0.0655825867       -1.4767837816
 C          1.5381805467       -0.5732967982       -0.7406490993
 H          0.6297256772       -0.0398021496       -0.5141869980
 N          2.3172426125        1.3882852885       -1.8853242148
 S          1.2823869285        2.4109728582       -1.0724027430
 O         -0.0885894317        2.0119655643       -1.2684171803
 O          1.6345004486        3.7251476624       -1.5673948378
 C          1.7472233408        2.2765952685        0.6440965513
 C          0.8681164349        1.7575846564        1.5708112463
 C          1.2791815967        1.6209627145        2.8870015508
 C          2.5567522600        2.0122506749        3.2541352593
 C          3.4257963897        2.5477722849        2.3148431696
 C          3.0212945600        2.6786299866        0.9969376909
 H          3.6668394590        3.0954366423        0.2411795370
 H          4.4169569912        2.8568764773        2.6052347639
 H          2.8747856651        1.9004097750        4.2786849794
 H          0.5984898039        1.1910621125        3.6045163795
 H         -0.1187733843        1.4532903515        1.2594515602
 H          3.1116255318        1.8591300000       -2.2892859133
 H          4.4571143555       -0.1302733521       -2.3827900053
 H          4.7294861230       -2.4719259267       -1.6594005679
 H          2.9718657951       -3.5936994183       -0.3645436415
 H          0.7590646245       -2.2846692901        1.5418063848
 C          0.5099253630       -4.0297576924        0.3294103832
 C          1.2903452056       -4.9222964737        1.2465885318
 C         -0.1995000967       -4.8344583775        1.3761159258
 H         -0.7998707856       -5.6749254186        1.0619301464
 H         -0.6095640839       -4.2963865390        2.2183956491
 H          1.7145169907       -5.8296431795        0.8434983294
 H          1.8896046460       -4.4542781454        2.0129610363
 H          0.3879837697       -4.3352393339       -0.7036896763
