  62
        -98.94513178
 C         -1.0531968988       -1.3146540805        0.4622617813
 C         -1.5346659189       -0.6939364309       -0.7182104389
 C         -2.3553612793        0.5110173689       -0.5149266892
 C         -2.6069645795        0.9604155491        0.7266513207
 C         -3.4000408899        2.1875695989        1.0860049704
 C         -4.9188125199        1.9663644084        1.1076835504
 C         -5.5761318297        1.8110311179       -0.2643329496
 H         -6.6547035598        1.8874950076       -0.1129797797
 H         -5.2779801100        2.6412945378       -0.9054304598
 C         -5.2710466093        0.4809590078       -0.9676084493
 H         -4.8886162991       -0.2377062819       -0.2392452292
 H         -6.1948091391        0.0636986974       -1.3746260093
 C         -4.2758837292        0.5883802579       -2.1235043393
 H         -4.1013087189       -0.4140360521       -2.5226855691
 H         -4.7039168794        1.1984134976       -2.9222617395
 C         -2.9180947594        1.1835365484       -1.7300119594
 H         -3.0114496998        2.2567735384       -1.5611549696
 H         -2.2143672693        1.0245652185       -2.5520422493
 H         -5.1347902796        1.0852023485        1.7160585305
 H         -5.3658263302        2.8309608884        1.6036690601
 H         -3.1570348002        2.9956928388        0.3950546802
 H         -3.0827767401        2.4814270692        2.0888918104
 O         -2.1307953694        0.3347758295        1.8355819809
 C         -1.3545782390       -0.8083185603        1.7301156112
 O         -0.9965818189       -1.2789937299        2.8278920413
 O         -1.3050310087       -1.0958020511       -1.8887002088
 C         -0.1556984084       -2.5404774502        0.4684151216
 C          1.3011802315       -2.1520928997        0.3607581516
 C          2.2491870617       -2.7371534492        1.1927825918
 C          3.5850164816       -2.3945949888        1.0908566818
 C          3.9972228413       -1.4451270689        0.1733857516
 C          3.0573774612       -0.8503526294       -0.6599293085
 C          1.7214050013       -1.2154945098       -0.5726092185
 H          1.0123646412       -0.7581346502       -1.2443088987
 N          3.4408618009        0.1344606305       -1.5886523387
 S          2.5769563304        1.5694416502       -1.6108791591
 O          1.3198975605        1.4002741597       -2.2893032491
 O          3.4910054501        2.5265126704       -2.1983033393
 C          2.3201361602        1.9536581005        0.1116684208
 C          3.3983765900        2.4098812811        0.8449793008
 C          3.2339141398        2.6524556813        2.1984937107
 C          2.0023400699        2.4263179910        2.7947415907
 C          0.9290998701        1.9718381305        2.0445937107
 C          1.0871044202        1.7317960103        0.6885828908
 H          0.2733308504        1.3763225099        0.0748484108
 H         -0.0265380199        1.7859725503        2.5095624507
 H          1.8732698698        2.6053271112        3.8504401106
 H          4.0635842897        3.0114971817        2.7856885507
 H          4.3359951300        2.5823133513        0.3418871508
 H          4.4331043908        0.3255469509       -1.5968653487
 H          5.0368817312       -1.1649800586        0.0997652316
 H          4.3102991417       -2.8593846884        1.7407309420
 H          1.9299912719       -3.4579142392        1.9305290020
 H         -0.3000837483       -3.0117653600        1.4507350717
 C         -0.4954568080       -3.5602227905       -0.6018230882
 C         -0.1615310675       -5.0021980104       -0.3717631778
 C         -1.5906786876       -4.5509968308       -0.3525688380
 H         -2.2341879575       -4.8228865212       -1.1756622080
 H         -2.0981110977       -4.5046367908        0.6003427920
 H          0.1812259827       -5.5892898305       -1.2098049077
 H          0.2950725325       -5.2698277900        0.5688676923
 H         -0.3949605980       -3.1728338407       -1.6072257682
