  62
        -98.93322213
 C         -2.6183222899       -1.1899687611       -0.0568682892
 C         -2.8108939801       -0.0025314510       -0.7976011390
 C         -4.1784362501        0.5565635689       -0.8115647086
 C         -5.1497122400       -0.0877466413       -0.1378826286
 C         -6.5948995800        0.3045897586        0.0207250117
 C         -6.7908497999        1.4524276684        1.0236527119
 C         -5.8052733800        2.6084598685        0.8758159720
 H         -5.9836745099        3.3039761183        1.7002464521
 H         -4.7877057099        2.2293349185        0.9875223118
 C         -5.9144021403        3.3931768787       -0.4294063378
 H         -6.9268088803        3.7921119786       -0.5239533976
 H         -5.2290394203        4.2412854687       -0.3547697578
 C         -5.5738712204        2.6206608690       -1.7059576380
 H         -5.4423534506        3.3559709491       -2.5051246879
 H         -6.3972313504        1.9798103389       -2.0098614280
 C         -4.2794937903        1.8163130690       -1.6375190684
 H         -3.9980207905        1.5215098092       -2.6556266385
 H         -3.4679283103        2.4678686190       -1.2936644384
 H         -6.6769205897        1.0441803382        2.0309647419
 H         -7.8115796699        1.8257403383        0.9249046422
 H         -7.1186591798       -0.5774380915        0.3959631316
 H         -7.0222313101        0.5573426687       -0.9449464882
 O         -4.9135749298       -1.2345077614        0.5638254411
 C         -3.6612580397       -1.8105032013        0.6277513208
 O         -3.6013313095       -2.8523069914        1.3132986406
 O         -1.8845245102        0.5770774692       -1.4233593990
 C         -1.2448497698       -1.8305429410        0.0049110804
 C         -0.2317203298       -0.8612886611        0.5653063804
 C         -0.5543590397       -0.1242652813        1.7014717806
 C          0.3527286204        0.7591692787        2.2537247706
 C          1.6065851103        0.9263123189        1.6915278005
 C          1.9473252101        0.1818568291        0.5717377303
 C          1.0317945401       -0.7053240609        0.0177470403
 H          1.3128001400       -1.2742680907       -0.8554494399
 N          3.2238951000        0.3423190293       -0.0138314599
 S          4.5667982102       -0.0573708808        0.9323047198
 O          4.6584519803       -1.4952458108        1.0821574595
 O          4.5251367704        0.7054897990        2.1523547800
 C          5.8875892200        0.5330440695       -0.1076699203
 C          6.6847925300       -0.3663197403       -0.7882898906
 C          7.6967355198        0.1180331999       -1.6027164607
 C          7.8902364497        1.4855511100       -1.7236189705
 C          7.0802871797        2.3761792398       -1.0342079102
 C          6.0682093399        1.8985070796       -0.2175709301
 H          5.4198992999        2.5528478794        0.3411961001
 H          7.2349060796        3.4388133198       -1.1304217000
 H          8.6786079695        1.8599769301       -2.3574591205
 H          8.3291273797       -0.5717075499       -2.1382670809
 H          6.5024640201       -1.4211730303       -0.6595391808
 H          3.2917522799       -0.1774404105       -0.8803565700
 H          2.3240256503        1.6056254789        2.1205348005
 H          0.0812228905        1.3279289485        3.1306855308
 H         -1.5328156096       -0.2525458014        2.1455883408
 H         -1.3327780496       -2.6701704312        0.7109511703
 C         -0.8730199900       -2.3784515208       -1.3579336897
 C          0.0139611001       -3.5803409307       -1.4785427401
 C         -1.4480961900       -3.6934037507       -1.7872684499
 H         -1.7515306201       -3.8128339006       -2.8164769998
 H         -2.0840753098       -4.2085610509       -1.0819275299
 H          0.7131023900       -3.6266965605       -2.3003223202
 H          0.3762703103       -4.0298290908       -0.5659278102
 H         -0.7897429802       -1.5998589206       -2.1078699296
