  62
        -98.94951981
 C         -1.5649125767       -0.9247963771       -0.6992645699
 C         -1.3689151648       -1.7031533452        0.4666308716
 C         -0.3020906395       -2.7124941814        0.3912484460
 C          0.4331773444       -2.8135868694       -0.7303746797
 C          1.5437999690       -3.8010249847       -0.9465947649
 C          2.9127500192       -3.2378135704       -0.5437172686
 C          2.9433581580       -2.6020845884        0.8463326568
 H          3.9740573484       -2.2949595661        1.0413739218
 H          2.3386337861       -1.6921703416        0.8551440023
 C          2.4609069713       -3.5180379848        1.9790204403
 H          2.4934075437       -4.5607841805        1.6592180075
 H          3.1451849549       -3.4144787293        2.8238482524
 C          1.0604995700       -3.1828694031        2.4968568120
 H          0.9909286370       -2.1059449130        2.6748689900
 H          0.9210621228       -3.6867778819        3.4574810090
 C         -0.1037735566       -3.5984386649        1.5881230262
 H          0.0214081536       -4.6401398321        1.2825350886
 H         -1.0255487702       -3.5196176035        2.1723169189
 H          3.6412279985       -4.0502663453       -0.5857936677
 H          3.2098514511       -2.4810137137       -1.2737674337
 H          1.3306179838       -4.7007883131       -0.3721856573
 H          1.5671965164       -4.0572234455       -2.0076394097
 O          0.2514558606       -2.0094288764       -1.8099945443
 C         -0.7434141065       -1.0435154986       -1.8188278125
 O         -0.7949765432       -0.3680376789       -2.8665086255
 H         -0.3226005552        1.2799215682       -0.2445105874
 C         -1.0694720394        1.6376721425        0.4490963907
 C         -2.3699405186        1.1615472077        0.3441005126
 C         -3.3268562399        1.6451822401        1.2259620712
 C         -2.9724926493        2.5558797708        2.2070880441
 C         -1.6652646297        2.9867574067        2.3400573931
 C         -0.7032555859        2.5180466816        1.4521028449
 N          0.6355519313        2.9286485074        1.5368535476
 S          1.8459091593        1.8335923372        1.1597978994
 O          1.4852846018        0.4832044118        1.5197967435
 O          3.0246338294        2.3681429351        1.8111138395
 C          2.0482672128        1.9893666285       -0.6011884684
 C          2.1782028643        0.8534917848       -1.3738073193
 C          2.3490070108        0.9846767122       -2.7421583408
 C          2.3918314811        2.2477190196       -3.3108194791
 C          2.2690077421        3.3808279267       -2.5205997449
 C          2.0965187990        3.2547401575       -1.1518061576
 H          1.9934370197        4.1109168454       -0.5062801358
 H          2.3020526977        4.3608549493       -2.9688524926
 H          2.5176471300        2.3462388240       -4.3774715838
 H          2.4282789355        0.1009941612       -3.3549504444
 H          2.1218580645       -0.1124960675       -0.8966199250
 H          0.8642993655        3.4868019679        2.3464411391
 H         -1.3870511987        3.6743142263        3.1242309936
 H         -3.7231603986        2.9212156471        2.8915301628
 H         -4.3454778120        1.3006298188        1.1552632913
 C         -2.6485150647        0.1396466880       -0.7311704254
 H         -2.5559489092        0.6377004811       -1.7077114974
 C         -4.0207488695       -0.4919150998       -0.6312768167
 C         -5.2063715849        0.1776317508       -1.2569297559
 C         -4.6418391884       -1.0693567070       -1.8663947043
 H         -5.2024680600       -1.9879802093       -1.7804197259
 H         -4.0835636987       -0.9835268997       -2.7874342546
 H         -5.0392981137        1.1118318564       -1.7712541608
 H         -6.1596573823        0.1136193244       -0.7543265939
 H         -4.1646159481       -1.0290704467        0.2990336014
 O         -2.0651996712       -1.5819750571        1.5087051298
