  62
        -98.93051417
 C         -1.1763426123       -0.7187225735        0.6002435909
 C         -1.9975963640       -0.7342054851       -0.5507670864
 C         -3.0106789645        0.3342224337       -0.6390764381
 C         -3.0567868336        1.2767125598        0.3178113349
 C         -4.0368479066        2.4110067843        0.4372611203
 C         -5.2248943994        2.0111835599        1.3288629366
 C         -6.3717987538        1.3127614190        0.5990897631
 H         -7.0774966418        0.9683602131        1.3585339102
 H         -6.8930731138        2.0401508910       -0.0266639126
 C         -5.9655433549        0.1209888241       -0.2719027367
 H         -5.2308557005       -0.4883828621        0.2572773325
 H         -6.8511854599       -0.4988211973       -0.4240768457
 C         -5.4093902792        0.5357716664       -1.6423145552
 H         -5.9304004508       -0.0177931915       -2.4261264852
 H         -5.6289765439        1.5900224222       -1.8106922567
 C         -3.9073556750        0.2836970717       -1.8459868401
 H         -3.7578557640       -0.7192718415       -2.2581049318
 H         -3.5240298665        0.9870683551       -2.5931351857
 H         -5.6235231153        2.9097012393        1.8042846125
 H         -4.8436382741        1.3634700271        2.1225532429
 H         -3.5016479032        3.2348785821        0.9146610568
 H         -4.3713951902        2.7350500080       -0.5438384325
 O         -2.2048037441        1.2868437851        1.3804400980
 C         -1.2460204999        0.3050259114        1.5430136313
 O         -0.5226744679        0.4492737114        2.5514487074
 H          0.9445456494        0.3345981838       -0.1951104067
 C          1.2823220559       -0.5247974193       -0.7530646721
 C          0.7945709092       -1.7855378874       -0.4154289841
 C          1.2184055040       -2.8606316637       -1.1850863149
 C          2.0873718159       -2.6670672252       -2.2481234622
 C          2.5775405161       -1.4146294269       -2.5619643997
 C          2.1614366699       -0.3271686514       -1.8016122208
 N          2.6178767441        0.9707994823       -2.0720326764
 S          2.7851774151        2.0761642279       -0.8306554580
 O          1.4958281612        2.5778659808       -0.4237083804
 O          3.7031266973        3.0623132882       -1.3619695377
 C          3.5794424513        1.1763992047        0.4903191295
 C          4.8769698940        0.7541523070        0.2698371156
 C          5.5224630822        0.0197994040        1.2501824152
 C          4.8609221521       -0.2832732042        2.4309136720
 C          3.5625647275        0.1532358366        2.6400809162
 C          2.9114905117        0.8918206057        1.6634353045
 H          1.8974890352        1.2340628309        1.8064013224
 H          3.0400038813       -0.0781267005        3.5547635857
 H          5.3589718854       -0.8601973887        3.1940253965
 H          6.5344014676       -0.3158804700        1.0911758843
 H          5.3610949311        1.0199783542       -0.6557439751
 H          3.3597867065        1.0370474653       -2.7524088294
 H          3.2582617536       -1.2736596596       -3.3869955568
 H          2.3926840565       -3.5177349169       -2.8384396197
 H          0.8715746420       -3.8587932162       -0.9914062835
 C         -0.1114141392       -1.7908776968        0.7956325375
 H          0.5077299530       -1.4293494764        1.6351095404
 C         -0.7933385021       -3.0552749774        1.2965182809
 C         -1.3381736404       -4.1528735319        0.4386085228
 C         -0.1745671477       -4.4204528037        1.3479459766
 H         -0.3558867901       -5.0140776259        2.2320781360
 H          0.8078988737       -4.5624457971        0.9298378998
 H         -2.3004550480       -4.5653974595        0.7063419143
 H         -1.1909187103       -4.0794573781       -0.6261317308
 H         -1.4040407436       -2.7947220849        2.1595910822
 O         -1.8979957729       -1.5945079590       -1.4620793489
