  62
        -98.93839078
 C         -0.7791061218       -1.5666786189       -0.6028421135
 C         -2.0232563914       -1.8189936104        0.0314481413
 C         -3.0813954678       -0.8240207516       -0.1803378030
 C         -2.8345529617        0.2484827603       -0.9532617031
 C         -3.8059601161        1.3409574120       -1.3159024652
 C         -4.3188680322        2.2121427429       -0.1530943736
 C         -5.6477423461        1.7425016617        0.4519710324
 H         -6.2683363636        2.6161040451        0.6616328349
 H         -6.1841375945        1.1493997082       -0.2896300493
 C         -5.5362391086        0.9494038013        1.7575086698
 H         -5.3504974217        1.6422047178        2.5813900902
 H         -6.5007462771        0.4715695243        1.9424664546
 C         -4.4401818426       -0.1158831748        1.7975261005
 H         -3.4652563507        0.3611373875        1.9209958250
 H         -4.5962171295       -0.7322870351        2.6850795570
 C         -4.3778495992       -1.0193951639        0.5508957517
 H         -5.2222049267       -0.8247297981       -0.1087625263
 H         -4.4107506075       -2.0689067933        0.8502399393
 H         -3.5539322714        2.2720077038        0.6198850740
 H         -4.4648435808        3.2176160027       -0.5510646695
 H         -4.6569862815        0.8928978783       -1.8341553916
 H         -3.2767937770        1.9722431975       -2.0321069137
 O         -1.6346209649        0.4444774748       -1.5612407471
 C         -0.5774591110       -0.4392735762       -1.3995907954
 O          0.4471889775       -0.1033219780       -2.0239332693
 O         -2.2432572743       -2.8410532139        0.7349746082
 C          0.3337734965       -2.5705703139       -0.3471865809
 C          1.2416268307       -2.0350792152        0.7337277121
 C          1.1689323575       -2.5494660183        2.0240756298
 C          1.9642624387       -2.0370722952        3.0330170315
 C          2.8372949954       -0.9957849502        2.7768698610
 C          2.9130822788       -0.4703736915        1.4903736384
 C          2.1249386874       -0.9951784865        0.4760443169
 H          2.1907227826       -0.5737255748       -0.5140019551
 N          3.7851738314        0.5882100725        1.2150998710
 S          3.6017288850        1.6143095605       -0.0811289459
 O          3.9665221674        0.9463105419       -1.3046630416
 O          4.4297645339        2.7525076653        0.2698257098
 C          1.9043099220        2.1628783940       -0.1301936054
 C          1.1436261174        2.2135531548        1.0198858267
 C         -0.1394061763        2.7330523653        0.9504282643
 C         -0.6322786153        3.2051296177       -0.2552410712
 C          0.1446605272        3.1478068268       -1.4004301800
 C          1.4231228615        2.6192025633       -1.3398020672
 H          2.0514720248        2.5369286245       -2.2119174134
 H         -0.2432763013        3.5006020769       -2.3425849367
 H         -1.6288589855        3.6145801014       -0.3052626564
 H         -0.7485758441        2.7681085763        1.8402332274
 H          1.5408352872        1.8437934405        1.9515359912
 H          4.2135260197        1.0349868313        2.0111847209
 H          3.4560397905       -0.5887981160        3.5618620307
 H          1.8997682778       -2.4471415608        4.0293226659
 H          0.4698625677       -3.3460195171        2.2326975664
 H         -0.1715062572       -3.4609828940        0.0513645628
 C          1.1000506750       -2.9749189151       -1.5889413023
 C          1.8571975880       -4.2680906909       -1.5790463388
 C          0.6124281923       -4.1341779443       -2.4029288218
 H          0.7049372358       -4.0833865994       -3.4774442408
 H         -0.2791399277       -4.6424730430       -2.0652677738
 H          2.8090882705       -4.3098394078       -2.0859507924
 H          1.8088810591       -4.8692215175       -0.6835350852
 H          1.5355632536       -2.1423851072       -2.1259294234
