  62
        -98.94298759
 C         -2.3385362304       -0.8848269711        0.4665723100
 C         -2.5243666304        0.1192723594       -0.5143585396
 C         -3.5058797805        1.1619691192       -0.1839102391
 C         -4.1287447905        1.1519228386        1.0077344409
 C         -5.1243246305        2.1665563583        1.5003344014
 C         -6.5623181605        1.9101684685        1.0291151313
 C         -6.8238058305        2.2017676592       -0.4490245586
 H         -6.4760464006        3.2075178693       -0.6869839082
 H         -7.9062039905        2.1893120192       -0.5914428686
 C         -6.1876510705        1.1927564196       -1.4153008391
 H         -6.9191012605        0.9031085399       -2.1731715992
 H         -5.9171585904        0.2859199694       -0.8694530995
 C         -4.9536104305        1.7124479900       -2.1529356988
 H         -5.2388342705        2.5396538203       -2.8068473585
 H         -4.5649396205        0.9062332803       -2.7804416092
 C         -3.8202658005        2.1856613596       -1.2332789486
 H         -4.0837060606        3.1365578094       -0.7708069882
 H         -2.9227644405        2.3281322999       -1.8402074886
 H         -7.2189393105        2.5482279382        1.6250110316
 H         -6.8212620205        0.8714648484        1.2469869108
 H         -5.1053478005        2.1146067578        2.5910528513
 H         -4.8123363105        3.1655376585        1.1944827618
 O         -3.8972864104        0.1908184082        1.9399682705
 C         -3.0268153804       -0.8532247017        1.6850281700
 O         -2.9473955704       -1.6851029821        2.6107613196
 H          0.1655102196       -0.3452089703       -1.1098328098
 C          0.6941503296       -0.7701578906       -0.2692854500
 C          0.0361814796       -1.6637995610        0.5636050796
 C          0.7239744697       -2.1890753215        1.6513028494
 C          2.0357494497       -1.8239800416        1.8973950995
 C          2.6859516096       -0.9272740012        1.0686192899
 C          2.0075975396       -0.3961761107       -0.0206690498
 N          2.6446304395        0.5385600297       -0.8528815294
 S          4.2005184496        0.2253706600       -1.3909673396
 O          4.3514205595        1.0109285806       -2.5961493292
 O          4.4459894396       -1.1929578399       -1.5149415802
 C          5.2379404995        0.9148781895       -0.1180855993
 C          6.2175692796        0.1386117192        0.4695076504
 C          7.0182699396        0.7002044788        1.4520307006
 C          6.8271135395        2.0213272586        1.8263480012
 C          5.8410644495        2.7886411889        1.2239639916
 C          5.0379435495        2.2334877593        0.2407167513
 H          4.2625679395        2.7957259495       -0.2526247484
 H          5.6952733694        3.8157378087        1.5176381121
 H          7.4499752195        2.4559782783        2.5921332814
 H          7.7855724896        0.1056728386        1.9212902404
 H          6.3258414296       -0.8859310006        0.1507003899
 H          2.0574541195        0.8790157100       -1.6005783193
 H          3.7069958396       -0.6386928312        1.2570860600
 H          2.5575272997       -2.2394321719        2.7460147093
 H          0.2175547497       -2.8780333318        2.3117530790
 C         -1.3943214003       -2.0649249010        0.2903218694
 H         -1.6874008203       -2.7924085913        1.0589785591
 C         -1.5249556903       -2.7289584404       -1.0671101909
 C         -1.0601508003       -4.1434229903       -1.2300553815
 C         -2.5252944103       -3.8280026203       -1.2524607814
 H         -3.0543206603       -3.8902080999       -2.1916647614
 H         -3.1209587503       -4.1113515707       -0.3966400215
 H         -0.6625354803       -4.6424121806       -0.3591955418
 H         -0.5785897903       -4.4240459498       -2.1543344117
 H         -1.3749150704       -2.0513909300       -1.8971425206
 O         -1.9149167504        0.1716224699       -1.6170543996
