  62
        -98.93641025
 C          2.4301876494        1.0430116807       -0.6660047608
 C          3.5882686692        0.8972556508        0.1431288395
 C          4.3761515595       -0.3227335690       -0.0573749305
 C          3.9914674399       -1.2168314889       -0.9856010507
 C          4.7011834802       -2.4971905487       -1.3330187307
 C          4.3601372102       -3.6732378089       -0.4075594810
 C          4.9581626599       -3.5906430390        0.9974219292
 H          4.8270367700       -4.5711005391        1.4595008590
 H          6.0303955799       -3.4062960488        0.9245777295
 C          4.3115762695       -2.5301265893        1.8997144392
 H          3.3484232895       -2.2306636394        1.4796646990
 H          4.1101910793       -2.9615004895        2.8828353191
 C          5.1634171692       -1.2800154192        2.1203132896
 H          6.0726172991       -1.5467641191        2.6636558197
 H          4.5933241289       -0.5821244794        2.7389800795
 C          5.5619890794       -0.5520701089        0.8299955498
 H          6.3290822096       -1.1169979487        0.3006210799
 H          5.9689178091        0.4256652611        1.0992678500
 H          4.7342342105       -4.5816205788       -0.8853290310
 H          3.2734163602       -3.7583193792       -0.3361165913
 H          4.3933314005       -2.7571750987       -2.3480941308
 H          5.7787105202       -2.3302570285       -1.3286496804
 O          2.8854911601       -1.0367206090       -1.7526896409
 C          2.0669189798        0.0769696608       -1.6047064910
 O          1.0785723700        0.0661337907       -2.3636693412
 O          3.9522059589        1.7587382608        0.9870538597
 C          1.6187210891        2.3110185105       -0.4646580308
 C          0.4576286089        2.0836548502        0.4691198589
 C          0.2714714385        2.8834468600        1.5898770090
 C         -0.8121614316        2.6799924697        2.4274238387
 C         -1.7295720914        1.6783514795        2.1659104583
 C         -1.5505841510        0.8718772497        1.0489468083
 C         -0.4636207608        1.0772051800        0.2119344786
 H         -0.3315094305        0.4550543202       -0.6616100915
 N         -2.4746721807       -0.1612642104        0.7692318579
 S         -4.0745408808        0.3526945293        0.5647900476
 O         -4.1386187907        1.3932175894       -0.4385941023
 O         -4.6079450211        0.6949377790        1.8589812375
 C         -4.8440481903       -1.1383772807       -0.0311591428
 C         -5.1707237904       -2.1238487709        0.8807581370
 C         -5.7506725000       -3.2950214110        0.4203751567
 C         -5.9917466197       -3.4602440108       -0.9356356934
 C         -5.6574384896       -2.4621582206       -1.8383384232
 C         -5.0753806000       -1.2887343406       -1.3847701629
 H         -4.8049145700       -0.4838222004       -2.0496879327
 H         -5.8468622594       -2.5923488905       -2.8917112133
 H         -6.4453839994       -4.3716751109       -1.2916766037
 H         -6.0133698700       -4.0734292211        1.1184150165
 H         -4.9731156006       -1.9475540711        1.9250484070
 H         -2.1916970304       -0.6727203002       -0.0580471221
 H         -2.5860450015        1.5208052093        2.8007701581
 H         -0.9458239420        3.3097614895        3.2940608688
 H          0.9861303283        3.6642233501        1.8064758593
 H          2.3133642589        3.0030904606        0.0370801695
 C          1.2019886693        2.9624885407       -1.7779111508
 C         -0.2163153106        3.0967562205       -2.2380336911
 C          0.5332258891        4.3053362405       -1.7688129207
 H          0.8386966591        5.0438801207       -2.4942781505
 H          0.2598428987        4.7149085803       -0.8077777207
 H         -0.4093863303        2.9814195906       -3.2939234411
 H         -1.0079818307        2.7126832702       -1.6128387613
 H          1.9370562795        2.7951320009       -2.5590719806
