  62
        -98.94300465
 C         -2.3370047420       -0.8987035051        0.4113484943
 C         -2.5356310550        0.1980585547       -0.4620969839
 C         -3.5580100441        1.1691158642       -0.0483023797
 C         -4.2081224902        1.0121350031        1.1181743891
 C         -5.2538177750        1.9331211237        1.6852269492
 C         -6.6683957138        1.6773997466        1.1471198143
 C         -6.9037974181        2.1147110568       -0.2991967471
 H         -7.9810684427        2.0790090322       -0.4731927379
 H         -6.5890051460        3.1517191108       -0.4201763282
 C         -6.2059809130        1.2371619443       -1.3477448546
 H         -5.9151880720        0.2872475035       -0.8932130271
 H         -6.9066647818        1.0046810422       -2.1528896132
 C         -4.9742505742        1.8752263229       -1.9901510480
 H         -4.5391323394        1.1544459806       -2.6872742675
 H         -5.2736984875        2.7567633543       -2.5615091842
 C         -3.8838015497        2.2872132120       -0.9926031556
 H         -4.1947686488        3.1736227041       -0.4403049177
 H         -2.9771401656        2.5248270267       -1.5545042360
 H         -6.8929204880        0.6129470226        1.2468796949
 H         -7.3639551601        2.2249866410        1.7871756942
 H         -5.2611079449        1.7663999836        2.7644978310
 H         -4.9726241678        2.9693283404        1.4954169147
 O         -3.9621469451       -0.0329072675        1.9509175572
 C         -3.0517957846       -1.0164559775        1.6092774304
 O         -2.9642236040       -1.9383897106        2.4445783634
 O         -1.9051768966        0.3869752558       -1.5380909331
 C         -1.3678495702       -2.0363037887        0.1266688378
 C          0.0598146398       -1.6628501248        0.4491103196
 C          0.7797788001       -2.3683394324        1.4061026569
 C          2.0966704626       -2.0420595125        1.6788389814
 C          2.7205083561       -1.0058420556        1.0074309861
 C          2.0092817967       -0.2934037911        0.0508665332
 C          0.6909744726       -0.6273225143       -0.2250545428
 H          0.1408232308       -0.0686963967       -0.9680735235
 N          2.6247745361        0.7769195340       -0.6221343751
 S          4.1128289314        0.5038565283       -1.3485027835
 O          4.2156457237        1.4984193250       -2.3939935849
 O          4.2597908661       -0.8744211401       -1.7563884992
 C          5.2900827883        0.8875618982       -0.0685231415
 C          6.2523336482       -0.0390147065        0.2822939568
 C          7.1663245456        0.2861090258        1.2726555969
 C          7.1027437455        1.5257869818        1.8901738003
 C          6.1314670146        2.4461380595        1.5246571379
 C          5.2155536006        2.1277388270        0.5347954200
 H          4.4476365801        2.8146298527        0.2199127113
 H          6.0849586049        3.4089759411        2.0075965005
 H          7.8141230090        1.7766222812        2.6611408364
 H          7.9220971314       -0.4278516985        1.5582983847
 H          6.2590977457       -0.9924523750       -0.2214709014
 H          2.0021025526        1.2588595786       -1.2550455860
 H          3.7456583572       -0.7467722697        1.2164632294
 H          2.6434543218       -2.5992677049        2.4241389374
 H          0.2961874011       -3.1711551286        1.9435360143
 H         -1.6605869588       -2.8469762104        0.8072602448
 C         -1.4713063627       -2.5503395130       -1.2974535350
 C         -1.0175356093       -3.9445287458       -1.6025504728
 C         -2.4783762767       -3.6094309752       -1.6243641632
 H         -2.9855228951       -3.5621031845       -2.5764020476
 H         -3.0973499619       -3.9756797086       -0.8179407863
 H         -0.5161471681       -4.1286703057       -2.5404379764
 H         -0.6470788435       -4.5409067067       -0.7825242793
 H         -1.2923284373       -1.7882783040       -2.0446256760
