  62
        -98.94127084
 C         -1.8736739494        0.5902112876       -0.0188382046
 C         -2.5977759610        0.0875898844       -1.1297965777
 C         -3.6971309510       -0.8375609331       -0.8256364948
 C         -3.9076969706       -1.2078078516        0.4503512273
 C         -5.0248337945       -2.0967102226        0.9124492884
 C         -6.2647776186       -1.2752188713        1.2928036185
 C         -6.6745489831       -0.2486123069        0.2367033799
 H         -7.5770691532        0.2480262591        0.5993085312
 H         -5.8970015838        0.5150879366        0.1614614899
 C         -6.9400264101       -0.8398146347       -1.1549365227
 H         -7.8605477051       -0.4051983488       -1.5501851520
 H         -7.0982088976       -1.9159976225       -1.0760642077
 C         -5.8404649838       -0.5635610532       -2.1821156778
 H         -6.2232051084       -0.8317071191       -3.1704141285
 H         -5.6151814620        0.5058939504       -2.1984866265
 C         -4.5279935836       -1.3304507679       -1.9767933020
 H         -4.7377228053       -2.3970456429       -1.8723280117
 H         -3.9152289570       -1.1867309139       -2.8716979932
 H         -6.0553764464       -0.7436531267        2.2240368236
 H         -7.0922241517       -1.9636338979        1.4737589669
 H         -5.2720938727       -2.8028489259        0.1219656086
 H         -4.6834724877       -2.6508687079        1.7885383766
 O         -3.1398513271       -0.7731646359        1.4801848012
 C         -2.1101418168        0.1404869728        1.2815483972
 O         -1.5031367216        0.4459744945        2.3233833392
 H          0.5424371010       -0.6946059448       -0.6351802981
 C          1.0439209676       -0.0738135396        0.0975728844
 C          0.5024605678        1.1670613243        0.4137015263
 C          1.1549373574        1.9537814121        1.3525982593
 C          2.3031087001        1.4942760013        1.9749741756
 C          2.8281553018        0.2523925124        1.6717982350
 C          2.1896260499       -0.5382579761        0.7239762582
 N          2.7200838756       -1.7979231497        0.4002865827
 S          4.3742192976       -1.9349204223        0.1971137205
 O          4.5515627764       -3.0519137715       -0.7045754854
 O          5.0159710013       -2.0580629907        1.4822857165
 C          4.8790962363       -0.4128438680       -0.5856888131
 C          5.7752812300        0.4244626261        0.0465380027
 C          6.1280374679        1.6154834075       -0.5678566505
 C          5.5777571504        1.9484182048       -1.7955751492
 C          4.6815425133        1.0944523793       -2.4203707839
 C          4.3271972929       -0.0983742888       -1.8118423604
 H          3.6374641441       -0.7861556192       -2.2745379932
 H          4.2548823059        1.3542216330       -3.3759139822
 H          5.8484273257        2.8780786546       -2.2705927751
 H          6.8264570662        2.2800966281       -0.0855917387
 H          6.1764004690        0.1281030453        1.0020144377
 H          2.2146472212       -2.2878186823       -0.3223399328
 H          3.7083075006       -0.1266411612        2.1652963240
 H          2.7923304038        2.1102100819        2.7138783589
 H          0.7495698734        2.9152862686        1.6200890892
 C         -0.7592691189        1.5825501195       -0.2997118478
 H         -0.5797043027        1.4841360893       -1.3836861988
 C         -1.1421974223        3.0351432563       -0.0594464649
 C         -2.5663664923        3.4861915402       -0.1803245836
 C         -1.8937061165        3.4800461184        1.1579050648
 H         -1.6324441938        4.4295522382        1.6019887946
 H         -2.1758883140        2.7263187257        1.8758484750
 H         -2.7671322457        4.4353153007       -0.6542103212
 H         -3.3148867564        2.7326356914       -0.3790665411
 H         -0.3907263032        3.7186332696       -0.4423306513
 O         -2.3321153874        0.3960074028       -2.3227693690
