  62
        -98.93898435
 C         -1.7341777288       -1.0195134619       -0.0258153055
 C         -2.9180836943       -1.0261854241        0.7566802194
 C         -4.1267100338       -0.4325241683        0.1610950607
 C         -4.0600956432        0.0872305500       -1.0784446829
 C         -5.1208409902        0.7125447630       -1.9599344644
 C         -6.4728558313        1.1219667295       -1.3822721601
 C         -6.4203175753        2.2948386693       -0.4034927810
 H         -6.1748292440        3.2018694560       -0.9618621280
 H         -7.4161423356        2.4280501133        0.0247193662
 C         -5.4054518057        2.1644861399        0.7296627185
 H         -4.3956709819        2.1226187948        0.3157600150
 H         -5.4647782510        3.0716857324        1.3372697192
 C         -5.6111734291        0.9698039428        1.6588331331
 H         -6.6277387768        0.9846202651        2.0566877271
 H         -4.9212868826        1.0848817545        2.4993180551
 C         -5.3500156664       -0.4101403922        1.0314418448
 H         -6.2190001862       -0.7654511371        0.4827943198
 H         -5.1617261124       -1.1191246640        1.8428954200
 H         -6.9622973421        0.2660416201       -0.9270037616
 H         -7.0935453355        1.4275122339       -2.2290199724
 H         -4.6489971891        1.5863756105       -2.4207679603
 H         -5.2935561872       -0.0055213506       -2.7693308746
 O         -2.9005185907        0.0715394464       -1.7953442289
 C         -1.7204635032       -0.4609735000       -1.3021352631
 O         -0.7665420727       -0.3597825043       -2.1012458917
 O         -2.9671942592       -1.5265642836        1.9118720830
 C         -0.5044385044       -1.6549999575        0.5994438795
 C          0.4440752969       -0.6313679232        1.1753348404
 C          0.8363395880       -0.6849048172        2.5074226765
 C          1.7464464306        0.2275683966        3.0136000514
 C          2.2812952267        1.2133568076        2.2034981862
 C          1.8865736033        1.2796887998        0.8740935022
 C          0.9830379381        0.3588880313        0.3665370902
 H          0.6904391626        0.4124205820       -0.6715864665
 N          2.4379500281        2.2724763782        0.0311413997
 S          4.0826209674        2.0958236368       -0.2488274106
 O          4.8018849768        2.4827872794        0.9383652892
 O          4.3658892008        2.8588608686       -1.4432291918
 C          4.2901081097        0.3505378091       -0.5498830030
 C          4.6954033841       -0.4756714941        0.4786182996
 C          4.7738147733       -1.8395306869        0.2483109586
 C          4.4431959549       -2.3497415514       -0.9973975706
 C          4.0318281317       -1.5071067708       -2.0185346034
 C          3.9489021295       -0.1429570216       -1.7931610025
 H          3.6360874696        0.5440628248       -2.5636404409
 H          3.7693036297       -1.9065771957       -2.9851981851
 H          4.5104395289       -3.4115285398       -1.1767904447
 H          5.0880470362       -2.4993732998        1.0406511038
 H          4.9460601924       -0.0370684780        1.4303726279
 H          1.9587736532        2.3264664278       -0.8575614024
 H          3.0016278711        1.9248825140        2.5737079578
 H          2.0424201789        0.1712651507        4.0499504045
 H          0.4166496937       -1.4443553784        3.1505239691
 H         -0.8896274705       -2.2598658752        1.4310913512
 C          0.2505449105       -2.5668078360       -0.3499250505
 C          1.1155383412       -3.6496042759        0.2179475409
 C         -0.1643376186       -4.0002064789       -0.4785748941
 H         -0.1162000137       -4.4637443703       -1.4523564826
 H         -0.9984630932       -4.3342164565        0.1213541018
 H          2.0479812899       -3.8709063379       -0.2763698104
 H          1.1508813812       -3.7495976056        1.2918549226
 H          0.5932979993       -2.0640824245       -1.2449194811
