  62
        -98.94434910
 C          2.2647327137       -1.0682311228       -0.2659346389
 C          2.4187877082        0.0634793521        0.5710600141
 C          3.3462591159        1.0956490252        0.0879082745
 C          3.9515912441        0.9570513922       -1.1046548837
 C          4.8982531159        1.9376736530       -1.7415584894
 C          6.3507219898        1.8045298416       -1.2631301271
 C          6.6164110379        2.2999058445        0.1590484499
 H          7.6999621151        2.3514699119        0.2826214901
 H          6.2278664925        3.3129528387        0.2681721608
 C          6.0366700682        1.4023774059        1.2611793107
 H          5.8002196217        0.4205867941        0.8446747544
 H          6.7886385616        1.2480320335        2.0381973392
 C          4.7891098773        1.9626908507        1.9442230034
 H          4.4421666820        1.2312280802        2.6784677469
 H          5.0439832362        2.8808949300        2.4781429709
 C          3.6269140644        2.2613603885        0.9881096491
 H          3.8427501270        3.1527846725        0.3993738233
 H          2.7292825998        2.4466925829        1.5835745617
 H          6.6506798085        0.7574303711       -1.3463422048
 H          6.9729796914        2.3841225090       -1.9488559615
 H          4.5463835877        2.9546515491       -1.5650745078
 H          4.8700074731        1.7422294048       -2.8157383742
 O          3.7462091604       -0.1244408944       -1.9013181880
 C          2.9238786016       -1.1608724040       -1.4970306706
 O          2.8594269172       -2.1039852767       -2.3106182306
 O          1.8270129684        0.2315443169        1.6718030710
 C          1.3745706047       -2.2531351771        0.0825603707
 C         -0.0731047014       -1.9273734686       -0.1986020528
 C         -0.7476484785       -2.5384589214       -1.2492679584
 C         -2.0660218803       -2.2174897310       -1.5211455897
 C         -2.7364321076       -1.2804176857       -0.7551874238
 C         -2.0663353409       -0.6543727928        0.2873180293
 C         -0.7488501201       -0.9870466970        0.5658097104
 H         -0.2274965192       -0.4831025631        1.3660318280
 N         -2.7330774179        0.3100951877        1.0659590295
 S         -3.4816665069        1.5744314474        0.2509986880
 O         -2.8496935235        1.8340504707       -1.0226839824
 O         -3.5119817119        2.6732108639        1.1918493150
 C         -5.1441817189        0.9854518079        0.0010550334
 C         -5.6716741040        0.9261168456       -1.2738970754
 C         -6.9699570421        0.4695052957       -1.4415194245
 C         -7.7139096069        0.0836726105       -0.3370586014
 C         -7.1704130847        0.1520313387        0.9372626566
 C         -5.8737181939        0.6082508591        1.1116710794
 H         -5.4154799908        0.6810685322        2.0837927302
 H         -7.7521557522       -0.1484533342        1.7937387768
 H         -8.7234165731       -0.2719696218       -0.4703008241
 H         -7.3939783238        0.4162650669       -2.4314016211
 H         -5.0537770561        1.2322997458       -2.1031761895
 H         -2.1613979586        0.6705115845        1.8174491717
 H         -3.7615721371       -1.0221846757       -0.9652983515
 H         -2.5771888826       -2.7011140775       -2.3395970494
 H         -0.2233110749       -3.2551821356       -1.8648466347
 H          1.6741526606       -3.0564760691       -0.6034651134
 C          1.5705629531       -2.7412526358        1.5047688890
 C          1.1457644435       -4.1337730054        1.8571780631
 C          2.6027052345       -3.7904917570        1.7822142015
 H          3.1681710520       -3.7264387746        2.6998016150
 H          3.1731006362       -4.1643861439        0.9441173072
 H          0.7077222244       -4.3082642314        2.8277974544
 H          0.7282281662       -4.7423389502        1.0693995504
 H          1.4378530084       -1.9688288512        2.2503732877
