  62
        -98.94388749
 C         -2.4389904997       -1.0513262097        0.2351677781
 C         -2.5540562398        0.3002213211       -0.1694386292
 C         -3.7208487097        1.0220849000        0.3547623822
 C         -4.5736493997        0.4017671084        1.1905131611
 C         -5.7907618897        1.0128370371        1.8304078623
 C         -7.0411374597        0.9925339088        0.9406656623
 C         -7.0232065598        1.9788965711       -0.2276193757
 H         -6.7864938698        2.9763341104        0.1440709562
 H         -8.0364004698        2.0141673119       -0.6328803356
 C         -6.0531053398        1.6048215833       -1.3569190865
 H         -6.5551978699        1.7171868352       -2.3205127463
 H         -5.7724401698        0.5532658131       -1.2630817286
 C         -4.7817982299        2.4524777834       -1.4081292849
 H         -5.0411598899        3.4895499539       -1.6326206129
 H         -4.1535380899        2.0796798650       -2.2211883557
 C         -3.9508211798        2.4256895409       -0.1183370850
 H         -4.4411314998        3.0141555494        0.6570181961
 H         -2.9740593598        2.8688916814       -0.3288198842
 H         -7.8970119897        1.2308714876        1.5762789929
 H         -7.1822530697       -0.0214585405        0.5595884204
 H         -5.5717424597        2.0382362465        2.1294339743
 H         -5.9973224096        0.4252697753        2.7275491812
 O         -4.4085163396       -0.8905785524        1.5793799085
 C         -3.3537750596       -1.6505668614        1.1014282570
 O         -3.3341902396       -2.8252285823        1.5215679947
 O         -1.7302427698        0.8764478526       -0.9277937082
 C         -1.2836021597       -1.9006692487       -0.2644400836
 C          0.0236081003       -1.2856192396        0.1731596475
 C          0.2258604804       -1.0487896522        1.5310582480
 C          1.4019426004       -0.4826500731        1.9810607390
 C          2.4065259503       -0.1425403113        1.0903295896
 C          2.2127219503       -0.3663701887       -0.2648088308
 C          1.0294814202       -0.9437175978       -0.7143266418
 H          0.8951758002       -1.1094418258       -1.7714990722
 N          3.2258925302       -0.0553368169       -1.1806250702
 S          4.2424078802        1.2518383527       -0.9510367577
 O          3.5788797402        2.3551811914       -0.2968690756
 O          4.7930083101        1.5214144653       -2.2613975872
 C          5.5287749303        0.6008843807        0.0961170909
 C          6.1063585103       -0.6055472786       -0.2482921615
 C          7.1160101103       -1.1167678802        0.5511516775
 C          7.5324279904       -0.4157354523        1.6730624388
 C          6.9459909104        0.7962482670        2.0030996412
 C          5.9342090203        1.3122219385        1.2081910023
 H          5.4453127803        2.2475138981        1.4310065141
 H          7.2710123504        1.3405549753        2.8752592523
 H          8.3182065604       -0.8163219335        2.2939256280
 H          7.5737663503       -2.0595169397        0.2980427656
 H          5.7567419602       -1.1203678169       -1.1274211124
 H          2.9672648602       -0.1691766850       -2.1492069804
 H          3.3208214603        0.3104611080        1.4363602105
 H          1.5421288304       -0.3028926151        3.0363286794
 H         -0.5596479396       -1.3109313736        2.2272682875
 H         -1.3836750897       -2.8732993797        0.2383896445
 C         -1.3967792198       -2.1122348658       -1.7594743740
 C         -0.7691278798       -3.3139963146       -2.3977434364
 C         -2.2595701398       -3.2253486948       -2.2698517161
 H         -2.8459633198       -3.0558762431       -3.1605575358
 H         -2.7507339697       -3.8483324263       -1.5364795373
 H         -0.3335674698       -3.2100290226       -3.3802278062
 H         -0.2463618697       -4.0044590358       -1.7535248877
 H         -1.4064260398       -1.1809883947       -2.3146336222
