  62
        -98.94402110
 C         -2.4344139273       -1.0859572847        0.2501321210
 C         -2.4700771524        0.2585843146       -0.1910855088
 C         -3.5827607533        1.0702145052        0.3242043039
 C         -4.4666449316        0.5164463888        1.1744231842
 C         -5.6756946660        1.2110307590        1.7293768536
 C         -6.9028622063        0.9906814597        0.8336758620
 C         -6.6444723375        1.2678260153       -0.6472513787
 H         -5.9335269222        0.5316318137       -1.0291631392
 H         -7.5863851957        1.1099511649       -1.1769433115
 C         -6.1201463278        2.6791671051       -0.9466481048
 H         -6.3206008488        3.3367185687       -0.1000275679
 H         -6.6637028826        3.0805143512       -1.8045744528
 C         -4.6315835377        2.7420803039       -1.2943595352
 H         -4.4079319555        2.0177725951       -2.0817505721
 H         -4.4170523946        3.7364820304       -1.6950869049
 C         -3.6632183884        2.5007705294       -0.1292798725
 H         -2.6573939683        2.7630274610       -0.4715684032
 H         -3.9214444452        3.1559608208        0.7053257889
 H         -7.7099547930        1.6330008914        1.1904601882
 H         -7.2241046396       -0.0483292942        0.9363102222
 H         -5.8820947322        0.8024004409        2.7199758400
 H         -5.4663486886        2.2748936964        1.8223006960
 O         -4.3839324004       -0.7717493503        1.5941292072
 C         -3.3728319134       -1.6035392716        1.1436071604
 O         -3.4131747489       -2.7612385210        1.6062477372
 H          0.8281582800       -1.2080961057       -1.7538884519
 C          0.9916057221       -1.0918449400       -0.6941816951
 C          0.0034985971       -1.4591414912        0.2030475693
 C          0.2411639224       -1.2824437407        1.5642987390
 C          1.4354771772       -0.7512810730        2.0093263867
 C          2.4206295785       -0.3825404823        1.1085316928
 C          2.1901532742       -0.5443436329       -0.2496929663
 N          3.1834859808       -0.1876257762       -1.1735559154
 S          4.0781462303        1.2106155199       -0.9465157421
 O          3.3252144919        2.2344515988       -0.2607012724
 O          4.5747352745        1.5494044616       -2.2626581337
 C          5.4444142823        0.6748888174        0.0641172474
 C          5.7744543141        1.3825360817        1.2032579837
 C          6.8491638858        0.9582042504        1.9692671696
 C          7.5720421695       -0.1602203734        1.5840142692
 C          7.2297238912       -0.8585132748        0.4356114572
 C          6.1576416478       -0.4384495966       -0.3352248072
 H          5.8623092437       -0.9524472424       -1.2344749563
 H          7.7938946311       -1.7282485056        0.1396506239
 H          8.4068588378       -0.4893582750        2.1824054213
 H          7.1165665646        1.5006147165        2.8619210353
 H          5.1800105081        2.2427652566        1.4679776147
 H          2.9056826964       -0.2924210746       -2.1384805515
 H          3.3496847840        0.0438473998        1.4493535039
 H          1.6039929885       -0.6201462845        3.0675731521
 H         -0.5323487975       -1.5621897253        2.2670643112
 C         -1.3318854568       -2.0165035933       -0.2261160176
 H         -1.4886339624       -2.9672264641        0.3026925909
 C         -1.4530480142       -2.2616145197       -1.7151559765
 C         -0.8492156270       -3.4908245382       -2.3232952725
 C         -2.3376188024       -3.3698817600       -2.1980848133
 H         -2.9206845051       -3.2110340657       -3.0929336582
 H         -2.8406836953       -3.9652469757       -1.4500629853
 H         -0.3394596848       -4.1747646207       -1.6619739180
 H         -0.4113985373       -3.4192428976       -3.3075925143
 H         -1.4444763857       -1.3450775708       -2.2941253593
 O         -1.6224632132        0.7578078054       -0.9778856385
