  62
        -98.94600976
 C         -1.7416771802       -1.1589778489       -0.8120407305
 C         -2.8644120800       -0.5635898181       -0.1789654009
 C         -3.1445855689        0.8329392021       -0.5204958111
 C         -2.3725089880        1.4630407315       -1.4234617709
 C         -2.5047720268        2.8960587316       -1.8598867310
 C         -1.7895303865        3.8759999211       -0.9193991208
 C         -2.4934639369        4.1179411517        0.4164758890
 H         -2.0234568864        4.9921446013        0.8717065991
 H         -3.5411605266        4.3645233224        0.2380612185
 C         -2.3968033181        2.9431637516        1.4004225091
 H         -1.5807031685        2.2809731310        1.0979777694
 H         -2.1386499382        3.3224133215        2.3926406291
 C         -3.6835240687        2.1297321926        1.5504018686
 H         -4.4601932985        2.7554199832        1.9969894782
 H         -3.4824517396        1.3006180025        2.2340859387
 C         -4.2238118887        1.5415430229        0.2403071984
 H         -4.9953921493        0.8079371935        0.4873450381
 H         -4.6685132278        2.3270658832       -0.3702696018
 H         -0.7797165569        3.5023250404       -0.7287463403
 H         -1.7025372556        4.8318899110       -1.4417388908
 H         -2.0461591564        2.9674537012       -2.8484499308
 H         -3.5579857566        3.1657104223       -1.9423433714
 O         -1.3541566382        0.8402758007       -2.0643078904
 C         -0.9663558893       -0.4495603195       -1.7276681902
 O          0.0575414907       -0.8235975603       -2.3355582198
 O         -3.5954583608       -1.1777585075        0.6450000588
 C         -1.3581281614       -2.5427240692       -0.3122715702
 C         -0.5092267317       -2.3675455497        0.9272436001
 C         -0.8293907327       -2.9998759594        2.1213480600
 C         -0.0966020429       -2.7434976999        3.2673867803
 C          0.9366100877       -1.8250501307        3.2503380206
 C          1.2684962487       -1.1903159410        2.0568834007
 C          0.5760272189       -1.5026569805        0.8984730005
 H          0.8469346296       -1.0194757408       -0.0249670195
 N          2.2916690194       -0.2334708617        2.0140094211
 S          2.1747630807        1.1603591783        1.0774217410
 O          2.7020509612        2.2107595580        1.9269087411
 O          0.8398419011        1.3638955693        0.5726868604
 C          3.3518974510        0.8632491174       -0.2255254286
 C          2.9471573012        0.4395310476       -1.4741782987
 C          3.9114538214        0.1998506269       -2.4426647383
 C          5.2529609415        0.3853483660       -2.1501365978
 C          5.6436413313        0.8140089057       -0.8899778277
 C          4.6867456511        1.0547345265        0.0809943520
 H          4.9434659009        1.4030133263        1.0676945820
 H          6.6874852213        0.9604839250       -0.6636911672
 H          5.9960695816        0.1965520254       -2.9088416875
 H          3.5987303916       -0.1336687329       -3.4194165484
 H          1.8990613312        0.2949136284       -1.6887269291
 H          2.6961436392       -0.0205127019        2.9143113612
 H          1.4787731675       -1.5900294710        4.1539146808
 H         -0.3531047837       -3.2397069897        4.1911892302
 H         -1.6734098532       -3.6725179688        2.1561870397
 H         -2.2997040618       -3.0186028585       -0.0041986606
 C         -0.6770112016       -3.4377333997       -1.3248160799
 C         -0.7575148528       -4.9238659597       -1.1487710199
 C         -1.5119640418       -4.2583329592       -2.2594978602
 H         -1.1674398615       -4.3886927795       -3.2740011001
 H         -2.5856772218       -4.1778872684       -2.1710286306
 H          0.1079195669       -5.5176949203       -1.3988026595
 H         -1.3219626334       -5.3003399992       -0.3092377801
 H          0.2438659788       -3.0260294204       -1.7152416796
