  62
        -98.94306226
 C         -0.3566206179       -2.1146301836        0.2679019211
 C         -1.0905182819       -1.3898303509        1.2359611389
 C         -2.4324964015       -0.9470075764        0.8369944805
 C         -2.8988012171       -1.2825489248       -0.3792787046
 C         -4.1922367080       -0.8062475265       -0.9758243627
 C         -4.0136558486        0.6282495405       -1.5159004016
 C         -4.8353897733        1.6891423641       -0.7819402040
 H         -4.4580634849        2.6632237200       -1.1014136092
 H         -5.8781825890        1.6158097357       -1.0997123657
 C         -4.8041099195        1.6206390185        0.7480776116
 H         -5.1865007035        2.5747523097        1.1171390117
 H         -5.4968767539        0.8516341189        1.0941633358
 C         -3.4278108442        1.3640173634        1.3757306135
 H         -3.3353638981        1.9893669782        2.2665479855
 H         -2.6356271949        1.6676307714        0.6883411759
 C         -3.1941745939       -0.0956375050        1.8135693176
 H         -2.5904338431       -0.0993494399        2.7260775227
 H         -4.1514981173       -0.5677998585        2.0498410707
 H         -2.9539425086        0.8917436699       -1.4646323595
 H         -4.2881357451        0.6558819732       -2.5720609047
 H         -4.4477520938       -1.4869856072       -1.7884205688
 H         -4.9821046482       -0.8401904887       -0.2286184390
 O         -2.1929556748       -2.0421877973       -1.2559588710
 C         -0.8861475174       -2.4242093976       -0.9843831037
 O         -0.3254467730       -3.0301682445       -1.9176074485
 H          0.5580098822       -0.0073016743       -0.4590843993
 C          1.5342341183       -0.3447725191       -0.7659268619
 C          1.9830139785       -1.5949236549       -0.3644581552
 C          3.2357023284       -2.0137941645       -0.7969027387
 C          3.9969093349       -1.2025429981       -1.6213029303
 C          3.5375214334        0.0376856426       -2.0272990852
 C          2.2863463556        0.4669758972       -1.5982891864
 N          1.7586636550        1.6972426953       -2.0069969271
 S          0.6285175585        2.5283296858       -1.1056859636
 O         -0.6342567673        1.8326969685       -1.0930322317
 O          0.6139851828        3.8466774964       -1.7035324119
 C          1.3219265808        2.6323288927        0.5332979257
 C          0.7624251715        1.9397897472        1.5860294755
 C          1.3577036154        2.0218377648        2.8352852550
 C          2.4941220200        2.7947263569        3.0108196417
 C          3.0399561267        3.4946248515        1.9445308276
 C          2.4521309080        3.4118115883        0.6937217264
 H          2.8389345773        3.9501331663       -0.1561995344
 H          3.9209454997        4.0999428761        2.0848740810
 H          2.9545201922        2.8534904467        3.9844472632
 H          0.9271603904        1.4673703547        3.6538839380
 H         -0.1193267125        1.3390634539        1.4293904288
 H          2.3865226834        2.3048114582       -2.5096121187
 H          4.1298413752        0.6608468872       -2.6792901036
 H          4.9652133818       -1.5427361081       -1.9556170362
 H          3.6103877076       -2.9787871285       -0.4966639829
 C          1.1021808315       -2.4221904641        0.5453263503
 H          1.2789335751       -2.0858109222        1.5789417726
 C          1.3886885542       -3.9068510626        0.4634014025
 C          2.4115643966       -4.5337749000        1.3620832205
 C          0.9537441187       -4.7884232784        1.5948087268
 H          0.5525162598       -5.7635443758        1.3633327072
 H          0.4784864199       -4.3108377811        2.4393221356
 H          3.0142144877       -5.3401404467        0.9719914434
 H          2.9276653370       -3.8917013985        2.0598606682
 H          1.2806245858       -4.2958019642       -0.5424441123
 O         -0.6302493408       -1.1010998950        2.3746910105
