  62
        -98.93877887
 C         -2.7542738441       -0.6323588078       -0.1057567143
 C         -2.3578115696        0.2800830125       -1.1165490495
 C         -2.5777295154        1.7059851615       -0.8107725378
 C         -3.1426667835        2.0610882729        0.3556091650
 C         -3.3791794277        3.4726107014        0.8076446846
 C         -2.1933123380        4.0049861433        1.6230429161
 C         -0.8341253975        3.7955446314        0.9546638641
 H         -0.0822738666        4.2586739952        1.5976428465
 H         -0.6040913138        2.7278249245        0.9143116674
 C         -0.7241074867        4.3795427681       -0.4602681623
 H          0.2329271959        4.8973615589       -0.5506791036
 H         -1.5114151722        5.1174469071       -0.6223065862
 C         -0.7671952526        3.3328229600       -1.5755446429
 H         -0.4391033065        3.8089070750       -2.5041922034
 H         -0.0573846676        2.5323907025       -1.3489363171
 C         -2.1406195357        2.7039900506       -1.8457217290
 H         -2.8900284065        3.4902750830       -1.9644202045
 H         -2.0718176865        2.1485996734       -2.7860683397
 H         -2.3503954288        5.0706376458        1.8011585767
 H         -2.1816398589        3.4956431667        2.5893967507
 H         -4.2733832629        3.4852360416        1.4334314238
 H         -3.5476823018        4.1030174511       -0.0632638662
 O         -3.5387614956        1.1560573477        1.2880402544
 C         -3.3265440008       -0.1967617145        1.0923683779
 O         -3.7031896635       -0.9142061215        2.0422003092
 O         -1.8615896933       -0.0473264000       -2.2247568606
 C         -2.5247320117       -2.1342272496       -0.1742041695
 C         -1.2618534909       -2.4934596670        0.5697111374
 C         -1.2015624020       -3.6193389994        1.3825079888
 C         -0.0314717795       -3.9424938676        2.0468219006
 C          1.0946846467       -3.1509972819        1.9158831756
 C          1.0388682328       -2.0100878292        1.1211269458
 C         -0.1336442464       -1.6950977177        0.4511593957
 H         -0.1642652615       -0.8151155987       -0.1729726546
 N          2.1475518392       -1.1557076938        1.0216597586
 S          2.3281576896       -0.1833359472       -0.3460381371
 O          1.4464941716        0.9484476723       -0.2285507990
 O          2.2168971083       -0.9881122257       -1.5413931688
 C          4.0161040249        0.3452014142       -0.1225627496
 C          5.0331023968       -0.3622645800       -0.7353692276
 C          6.3448932905        0.0358890942       -0.5311405811
 C          6.6161827429        1.1275539103        0.2799904616
 C          5.5849712993        1.8292655347        0.8865891289
 C          4.2711125797        1.4367015051        0.6856353821
 H          3.4361290419        1.9555988458        1.1271711582
 H          5.7991996741        2.6799875884        1.5131224690
 H          7.6376568354        1.4356713095        0.4375193566
 H          7.1482266716       -0.5047802441       -1.0049990732
 H          4.7732316273       -1.1971474230       -1.3662659671
 H          3.0159370937       -1.5911403421        1.2997632724
 H          2.0067053238       -3.4020208371        2.4353992862
 H          0.0046740137       -4.8208988316        2.6731064649
 H         -2.0827752914       -4.2322660038        1.5026351121
 H         -3.3662535094       -2.5900308258        0.3740198069
 C         -2.5450862205       -2.7031780371       -1.5848386018
 C         -1.3041480862       -3.0340361870       -2.3521084653
 C         -2.1746777554       -4.1360796632       -1.8322131967
 H         -2.7629502322       -4.7036117180       -2.5372732453
 H         -1.8057064558       -4.7109563344       -0.9966464254
 H         -1.3010013905       -2.8205178753       -3.4101256388
 H         -0.3489789559       -2.8542495243       -1.8813203129
 H         -3.3731150738       -2.3076085853       -2.1639504077
