  62
        -98.94626239
 C         -2.3899029118       -0.5206212917       -0.0112857553
 C         -1.3964467068       -0.7222010181        0.9743498605
 C         -0.7118943187       -2.0204803215        0.9502733109
 C         -1.0549044750       -2.9236032539        0.0141623377
 C         -0.3550690031       -4.2303775990       -0.2271774183
 C          0.9511102330       -3.9740338749       -1.0078681557
 C          2.2267049349       -4.3119848926       -0.2351808123
 H          2.3509444582       -5.3971592395       -0.2096014718
 H          3.0635297282       -3.8944889225       -0.7998247718
 C          2.2903986550       -3.7952677008        1.2054565870
 H          1.7229271119       -4.4608728136        1.8580640603
 H          3.3335815060       -3.8613928628        1.5215293968
 C          1.8001742451       -2.3573379688        1.4197383394
 H          1.8671076587       -1.7873172873        0.4919548574
 H          2.4626577344       -1.8722305009        2.1401706415
 C          0.3657473023       -2.2501908285        1.9728441165
 H          0.3114615916       -1.3858157346        2.6407549280
 H          0.1300676579       -3.1405945473        2.5621980402
 H          0.9753697552       -2.9224696809       -1.3053602290
 H          0.9449223738       -4.5582867530       -1.9299947483
 H         -0.1463231865       -4.7211741817        0.7209031386
 H         -1.0277626779       -4.8612437515       -0.8089378161
 O         -2.0412320350       -2.7091173700       -0.8952362808
 C         -2.7090414108       -1.4965592520       -0.9520915950
 O         -3.5546839222       -1.4129199210       -1.8678303630
 O         -1.0839782666        0.1533134187        1.8254455491
 C         -3.0567765295        0.8385184087       -0.1284031960
 C         -1.9886539026        1.8957453590       -0.2851611745
 C         -2.0249967428        3.1277981618        0.3555152504
 C         -0.9873816685        4.0309530224        0.1972569662
 C          0.1151538576        3.7176892251       -0.5767735281
 C          0.1543431711        2.4924048681       -1.2323662383
 C         -0.9078438913        1.6122691863       -1.1107817005
 H         -0.8656755176        0.6671561337       -1.6325468182
 N          1.2595305524        2.1113637466       -2.0212157258
 S          2.1095785778        0.7381593531       -1.5718305404
 O          3.1867938875        0.6378015996       -2.5336079796
 O          1.2220898339       -0.3932050320       -1.4944446528
 C          2.7937735000        1.1320146306        0.0284813173
 C          4.1326205086        1.4657635225        0.1062031327
 C          4.6668906028        1.8230466306        1.3331828556
 C          3.8539567089        1.8499249805        2.4565678736
 C          2.5118070476        1.5180586670        2.3596724891
 C          1.9698503893        1.1552606469        1.1357827953
 H          0.9290228991        0.8859649647        1.0483352893
 H          1.8710673778        1.5356940346        3.2268145395
 H          4.2674083263        2.1297898759        3.4127025859
 H          5.7112102394        2.0799344859        1.4090118693
 H          4.7246302310        1.4280426665       -0.7939945498
 H          1.9165977797        2.8610043209       -2.1896012932
 H          0.9381678819        4.4096537335       -0.6740587595
 H         -1.0283926961        4.9838165296        0.7024257734
 H         -2.8621699286        3.3774547444        0.9867199538
 H         -3.6567260526        0.8085126576       -1.0500507671
 C         -3.9772487421        1.0854956556        1.0490062133
 C         -5.2058966444        1.9280723605        0.8870692920
 C         -5.3310910109        0.4441536733        1.0528406244
 H         -5.7161964400        0.0570758624        1.9841763910
 H         -5.5980892283       -0.1495387925        0.1903418361
 H         -5.5103696163        2.5598267838        1.7078541534
 H         -5.4024107278        2.3448674007       -0.0892551538
 H         -3.4422839613        1.1310211183        1.9905297136
