  62
        -98.93637930
 C         -1.6899671803       -1.4353913598        0.3285649298
 C         -1.9129855401       -0.1920583099        0.9745531200
 C         -3.1409911300        0.5407913604        0.6199982801
 C         -3.9700392601        0.0221961507       -0.3049707700
 C         -5.3194709800        0.4863653810       -0.8125907800
 C         -5.8234127797        1.8968898011       -0.5198410397
 C         -5.0431759195        3.0070708610       -1.2214001895
 H         -5.2293415495        2.9388759713       -2.2962491896
 H         -5.4310440394        3.9684968711       -0.8775503194
 C         -3.5323430395        2.9745941308       -1.0081619095
 H         -3.1201149997        2.0627955708       -1.4457506096
 H         -3.0998917294        3.8181960508       -1.5533489094
 C         -3.0805412996        3.0784570904        0.4470936405
 H         -3.5428439294        3.9516173204        0.9115579707
 H         -2.0001979495        3.2352765603        0.4415406606
 C         -3.3645863198        1.8475422003        1.3263582203
 H         -4.3694545898        1.8844377404        1.7421059803
 H         -2.6631522498        1.8619168301        2.1656236603
 H         -5.8546448597        2.0719322109        0.5515253003
 H         -6.8555120297        1.9397239113       -0.8783375698
 H         -5.3017921800        0.3298166512       -1.8959444700
 H         -6.0450314701       -0.2302344189       -0.4113922701
 O         -3.6876587003       -1.1516850792       -0.9380849302
 C         -2.5608468504       -1.9065685895       -0.6523339903
 O         -2.4754437705       -2.9422049494       -1.3409822804
 O         -1.1256143601        0.2757867999        1.8392314801
 C         -0.4629099805       -2.2160160001        0.7659037697
 C          0.7173418696       -1.9713344501       -0.1430568002
 C          0.6548688296       -2.2497377399       -1.5041296502
 C          1.7485177096       -2.0182845199       -2.3192763702
 C          2.9268473497       -1.5144664002       -1.7958209201
 C          2.9991561197       -1.2347891305       -0.4383701500
 C          1.8980221897       -1.4608708504        0.3774860199
 H          1.9562477097       -1.2241649006        1.4314112500
 N          4.1993651998       -0.7116910508        0.0935069801
 S          4.5813318401        0.8549005993       -0.3649049296
 O          4.7075465901        0.9029774795       -1.7980581296
 O          5.7539885901        1.2118161289        0.3991776205
 C          3.1815014302        1.8187042694        0.1733409105
 C          2.0363575802        1.8194390497       -0.5979781895
 C          0.9177238604        2.4903176898       -0.1313592795
 C          0.9628244204        3.1423916396        1.0906090606
 C          2.1203947204        3.1321851193        1.8529982507
 C          3.2405905703        2.4582706592        1.3954566606
 H          4.1609691203        2.4226553289        1.9562912706
 H          2.1479289605        3.6396581892        2.8038798208
 H          0.0879034805        3.6568122397        1.4559633407
 H          0.0125266604        2.4891600601       -0.7183771495
 H          2.0360580102        1.3024417799       -1.5442794196
 H          4.2438145698       -0.7721154009        1.1018175901
 H          3.7825157098       -1.3155090103       -2.4201684500
 H          1.6842700996       -2.2365229298       -3.3747223302
 H         -0.2614594605       -2.6433959797       -1.9169556203
 H         -0.2073484404       -1.8124339903        1.7551821898
 C         -0.7108845207       -3.7057202800        0.9073383195
 C          0.1845013591       -4.5096547803        1.7996751694
 C         -1.2346653909       -4.2448605002        2.2028040394
 H         -1.9432579310       -5.0587717500        2.1717223792
 H         -1.4150378508       -3.5405354303        3.0019470095
 H          0.4549771389       -5.5079606703        1.4920726292
 H          0.9670141892       -3.9866474206        2.3284260995
 H         -1.0638604408       -4.1711074798       -0.0033322406
