  62
        -98.93409864
 C          2.2971622822        0.5484464610        0.3030098291
 C          3.4858245058        0.5015018990        1.0724495890
 C          4.5140799051       -0.4793908380        0.6751809654
 C          4.2530176993       -1.3036905708       -0.3559116069
 C          5.1485044960       -2.3494345363       -0.9652540389
 C          6.2527350326       -1.7433188844       -1.8463463432
 C          6.9557990624       -0.5265461542       -1.2503492344
 H          7.6348940688       -0.1305361542       -2.0100877520
 H          6.2162103337        0.2490228882       -1.0428367585
 C          7.7733348996       -0.7989615741        0.0101050024
 H          8.2895808695        0.1292965499        0.2683376655
 H          8.5342695788       -1.5504553792       -0.2119813470
 C          6.9804403807       -1.2569659855        1.2361621717
 H          6.7100908226       -2.3066980578        1.1598512836
 H          7.6425384172       -1.1696744121        2.1025924490
 C          5.7456432087       -0.4167298446        1.5463404082
 H          5.4017561426       -0.6622329112        2.5584758852
 H          6.0328701147        0.6401992821        1.5906972997
 H          6.9870193041       -2.5211042535       -2.0626227187
 H          5.7992896068       -1.4351965538       -2.7917086299
 H          4.5124895814       -2.9804976692       -1.5899690817
 H          5.5741541919       -2.9760968118       -0.1871964832
 O          3.0750467196       -1.2564756468       -1.0388787183
 C          2.0720992507       -0.3472176614       -0.7430084519
 O          1.0693334837       -0.4521803990       -1.4727023640
 O          3.6916984772        1.2572764795        2.0603196641
 C          1.2463609657        1.5682783091        0.7047482353
 C         -0.1015981213        0.9083578883        0.8386327750
 C         -0.3537183233        0.1030316522        1.9454913604
 C         -1.5745017118       -0.5260296988        2.0986369152
 C         -2.5684305276       -0.3704143926        1.1483756705
 C         -2.3257328555        0.4262392858        0.0381319381
 C         -1.1021515569        1.0672159288       -0.1066526422
 H         -0.9192094239        1.6699147465       -0.9828900379
 N         -3.3229749329        0.5676383518       -0.9411461675
 S         -4.8708290598        0.9876214603       -0.4579579107
 O         -5.4772142222        1.6064867623       -1.6168212813
 O         -4.8512375201        1.7773367654        0.7521490557
 C         -5.6695048069       -0.5741840097       -0.1529060337
 C         -6.3060067671       -0.7976145856        1.0522029654
 C         -6.9346832596       -2.0151035487        1.2626088932
 C         -6.9168204643       -2.9816278728        0.2688367452
 C         -6.2747609139       -2.7406637109       -0.9368552428
 C         -5.6451280416       -1.5255171123       -1.1538216383
 H         -5.1359083198       -1.2998394933       -2.0760096380
 H         -6.2619760594       -3.4950544051       -1.7070210954
 H         -7.4058070470       -3.9286372576        0.4345394180
 H         -7.4340464726       -2.2044979721        2.1992393876
 H         -6.2883607893       -0.0190633507        1.7981205274
 H         -3.0304307267        1.0970864854       -1.7491114446
 H         -3.5217779317       -0.8613025874        1.2580373146
 H         -1.7548948860       -1.1461244767        2.9636329862
 H          0.4250380706       -0.0257117564        2.6848855671
 H          1.5613714556        1.8985046239        1.7083503504
 C          1.2132598769        2.8158526098       -0.1658060619
 C          2.4812905606        3.3951759425       -0.7157457577
 C          1.4697681005        2.7927650807       -1.6417733297
 H          0.8927438009        3.4570081616       -2.2693492621
 H          1.6904868384        1.8425700288       -2.1019957172
 H          2.6040295887        4.4676956831       -0.7107796773
 H          3.3953636771        2.8488643282       -0.5342309822
 H          0.4705910042        3.5271703586        0.1848513860
