  62
        -98.93941234
 C         -2.4479717382       -1.2311565899       -0.0064752522
 C         -3.1786159085       -0.4718216332        0.9349074773
 C         -3.8309580100        0.7482770038        0.4298033464
 C         -3.6874404268        1.0749925058       -0.8664959288
 C         -4.2040625359        2.3062816422       -1.5575542184
 C         -3.1274021187        3.4050141114       -1.5759284933
 C         -3.1020812164        4.3039463439       -0.3399517370
 H         -2.2160627682        4.9384278060       -0.4195111278
 H         -3.9767887414        4.9575485085       -0.3536596304
 C         -3.0609546282        3.5714702575        1.0040481803
 H         -2.3550791405        2.7400260298        0.9460245918
 H         -2.6751008648        4.2676430417        1.7516001713
 C         -4.4379665124        3.0649235045        1.4596086982
 H         -5.2071076813        3.5338012010        0.8462644351
 H         -4.6188125524        3.3897709014        2.4861733295
 C         -4.6198705965        1.5388386299        1.4377369153
 H         -4.3245601233        1.1234229744        2.4063793244
 H         -5.6821979621        1.3081633067        1.3084595092
 H         -2.1540236514        2.9209858249       -1.6988779361
 H         -3.2868801663        4.0386793302       -2.4507300164
 H         -4.4235611266        2.0181101400       -2.5875530232
 H         -5.1175377604        2.6585708111       -1.0877384224
 O         -2.9688249286        0.3180723493       -1.7404026727
 C         -2.3209187953       -0.8381707208       -1.3389520034
 O         -1.6860099336       -1.4130146852       -2.2423572752
 H         -0.3100806077       -0.4043999772        1.3131404122
 C          0.3276735433       -1.1056246151        0.7875740969
 C         -0.2311670022       -2.2709647685        0.2753971417
 C          0.5972256104       -3.1615180800       -0.3929776008
 C          1.9421994092       -2.8763168920       -0.5585820764
 C          2.4895711318       -1.7091252633       -0.0592744254
 C          1.6714482188       -0.8156982281        0.6204834324
 N          2.2205542112        0.3748747233        1.1387226798
 S          2.9592242303        1.4039192332        0.0304769116
 O          2.8871695718        2.7190463962        0.6304120524
 O          2.3827376115        1.2670155020       -1.2876789815
 C          4.6541311087        0.8604489033        0.0232938864
 C          5.2438618452        0.4575157098       -1.1585820970
 C          6.5652158578        0.0381929014       -1.1382239023
 C          7.2684249509        0.0299309204        0.0567029072
 C          6.6616739120        0.4402369242        1.2347117760
 C          5.3417775488        0.8618193006        1.2213006238
 H          4.8330624660        1.1917392305        2.1116259885
 H          7.2118426356        0.4322409066        2.1617446341
 H          8.2955853623       -0.2987334993        0.0696729683
 H          7.0382427405       -0.2811313493       -2.0529300410
 H          4.6540196540        0.4741077314       -2.0613136151
 H          1.5644750672        0.8996404636        1.7005572032
 H          3.5342983205       -1.4811925575       -0.1940817806
 H          2.5728525360       -3.5734003627       -1.0888206329
 H          0.1880148790       -4.0722869268       -0.7977281221
 C         -1.7149046392       -2.4766617440        0.4603996871
 H         -1.9194020769       -2.5493220547        1.5389214883
 C         -2.2546578180       -3.7137023752       -0.2233919493
 C         -2.1479374061       -5.0494792895        0.4478620689
 C         -3.4795972202       -4.3722752903        0.3343164333
 H         -4.2077395568       -4.7728699755       -0.3547926143
 H         -3.9135643260       -3.9399235470        1.2241547664
 H         -1.6786398587       -5.0837230124        1.4192998941
 H         -1.9636948050       -5.9201278674       -0.1629777926
 H         -2.1576513881       -3.6696547528       -1.3021684346
 O         -3.2681453932       -0.7895398871        2.1528968962
