  62
        -98.94422009
 C         -2.0734933356       -1.3280719684       -0.1113967818
 C         -2.4458732864       -0.2849328255       -0.9938223985
 C         -3.8321254871        0.1860055939       -0.8729183885
 C         -4.6656910653       -0.3926517261        0.0097139953
 C         -6.1093039684       -0.0333498695        0.2335588912
 C         -6.3138034245        1.1464061837        1.1938494482
 C         -5.9381521298        2.5173667164        0.6298377033
 H         -6.4380293656        2.6647207510       -0.3280396932
 H         -6.3309247145        3.2662105637        1.3205564214
 C         -4.4285729705        2.7434564785        0.4648595838
 H         -3.8812336104        2.0063007949        1.0572513954
 H         -4.1621296369        3.7274547763        0.8574193535
 C         -3.9318259402        2.6836607281       -0.9798502645
 H         -2.8466679869        2.8171974598       -0.9735711730
 H         -4.3688566352        3.5052729770       -1.5518060226
 C         -4.2439333261        1.3656131890       -1.7007307492
 H         -5.3048044646        1.3111905488       -1.9437689162
 H         -3.6691150491        1.3386477903       -2.6296747577
 H         -7.3719067340        1.1666382488        1.4647092928
 H         -5.7410272246        0.9584828463        2.1049732672
 H         -6.5861591735        0.1862670634       -0.7220041531
 H         -6.5861483134       -0.9155238321        0.6660908418
 O         -4.2786612717       -1.4165319646        0.8158084420
 C         -2.9747978005       -1.8812140492        0.8018766700
 O         -2.7446276966       -2.7846007536        1.6304131638
 O         -1.6764807723        0.2310951536       -1.8460172305
 C         -0.6515147338       -1.8659098497       -0.0771922707
 C          0.2475216701       -0.7849061624        0.4710799142
 C          0.3424620208       -0.6101866951        1.8486771958
 C          1.1331745166        0.3907373180        2.3822070719
 C          1.8430560990        1.2412585481        1.5524861763
 C          1.7469979544        1.0794009398        0.1772462526
 C          0.9639450799        0.0650896080       -0.3570067704
 H          0.8879262750       -0.0396600197       -1.4273794853
 N          2.4792029031        1.9348001402       -0.6694046450
 S          4.1305277226        1.9905029875       -0.3926937251
 O          4.4044559120        2.8789798985        0.7089705687
 O          4.7265879877        2.3513977437       -1.6596844481
 C          4.5576458267        0.3171291757        0.0557626253
 C          4.4244865256       -0.6653846560       -0.9054736160
 C          4.6829233542       -1.9812188129       -0.5593989626
 C          5.0637565914       -2.2912145582        0.7373299322
 C          5.1957903715       -1.2932162764        1.6899754542
 C          4.9371342651        0.0249792999        1.3495756134
 H          5.0238293452        0.8308287343        2.0597626922
 H          5.4930927787       -1.5376738790        2.6969960283
 H          5.2589128790       -3.3175958285        1.0054751270
 H          4.5811275242       -2.7599016931       -1.2981727809
 H          4.1321573988       -0.3884892097       -1.9056560185
 H          2.2831822153        1.7881569061       -1.6490997027
 H          2.4654604369        2.0285562825        1.9464094881
 H          1.1978626682        0.5115344293        3.4528625566
 H         -0.2211852022       -1.2677193812        2.4961365269
 H         -0.6621370457       -2.6943988590        0.6430609694
 C         -0.2055444801       -2.3959302659       -1.4245878803
 C          1.0622145756       -3.1908246497       -1.5098086020
 C         -0.2621431989       -3.8688910341       -1.6888977852
 H         -0.5421854560       -4.2037487635       -2.6765684676
 H         -0.6238370629       -4.5056939101       -0.8948755749
 H          1.6930177407       -3.0626756492       -2.3760847133
 H          1.6024699030       -3.3628558661       -0.5911876367
 H         -0.4481543165       -1.7368151780       -2.2485599216
