  62
        -98.94946451
 C         -2.0494252631       -0.3718077617       -0.3112536648
 C         -1.4005581657       -1.3006205514       -1.1575073896
 C         -1.0333506741       -2.5814500599       -0.5431004386
 C         -1.2762925552       -2.7858257414        0.7645117084
 C         -0.9619436008       -4.0375739604        1.5383672758
 C          0.4916540379       -4.1140244922        2.0253357837
 C          1.5206152465       -4.4450473945        0.9437642763
 H          2.4502524439       -4.7027331640        1.4551957680
 H          1.1954096583       -5.3273085350        0.3904948086
 C          1.8006869281       -3.2935201386       -0.0316074512
 H          2.8794838076       -3.1986465698       -0.1812963994
 H          1.4628988733       -2.3545367819        0.4150174749
 C          1.1659691301       -3.4656555702       -1.4116593939
 H          1.4177804486       -2.5919100678       -2.0163266055
 H          1.5938692653       -4.3441220944       -1.9004256302
 C         -0.3609878701       -3.6140018011       -1.3993888828
 H         -0.7244780907       -3.4797736627       -2.4215808206
 H         -0.6355187167       -4.6131996908       -1.0608157997
 H          0.7537066411       -3.1612328059        2.4931048525
 H          0.5393252504       -4.8891994258        2.7940553305
 H         -1.1918653994       -4.9149832577        0.9325708237
 H         -1.6186918459       -4.0347385135        2.4110589832
 O         -1.8777559889       -1.8570578509        1.5527495805
 C         -2.2681978636       -0.6290155590        1.0425696570
 O         -2.8049513877        0.1253585331        1.8773734816
 O         -1.1416715052       -1.0724493053       -2.3709080697
 C         -2.4572116373        0.9841272045       -0.8634456459
 C         -1.7845044087        2.0657227714       -0.0540308032
 C         -2.4360481230        3.1795132037        0.4566560945
 C         -1.7518504208        4.0757229986        1.2610296807
 C         -0.4236019228        3.8728950817        1.5857516304
 C          0.2434665278        2.7699579139        1.0607178489
 C         -0.4316984042        1.9064491036        0.2172904033
 H          0.0821305450        1.0497670198       -0.1859852907
 N          1.5902291036        2.5340621129        1.3600343459
 S          2.3112329508        1.0304971969        1.2388539038
 O          1.3939847985       -0.0562573993        1.4867881525
 O          3.4485272166        1.1190065277        2.1309877782
 C          2.9073925825        1.0152872111       -0.4394420091
 C          2.3084239000        0.2292177888       -1.4014088585
 C          2.7890253284        0.2724599838       -2.7010297017
 C          3.8576650282        1.0966624634       -3.0155907506
 C          4.4540289251        1.8782094499       -2.0369118790
 C          3.9754524927        1.8400313595       -0.7379911564
 H          4.4144641060        2.4225143118        0.0547734607
 H          5.2871148120        2.5163678140       -2.2835534995
 H          4.2268416564        1.1274084812       -4.0285370822
 H          2.3157185833       -0.3340927191       -3.4572008746
 H          1.4763799511       -0.4034547302       -1.1332772414
 H          1.9768113702        3.0936769504        2.1042748034
 H          0.0939678728        4.5530371298        2.2448747976
 H         -2.2695801833        4.9341429533        1.6618791061
 H         -3.4811193727        3.3366088087        0.2456120121
 H         -2.0667904058        1.0162154764       -1.8915579106
 C         -3.9653377586        1.1093033165       -0.9071381784
 C         -4.6227510685        1.9870113323       -1.9289748901
 C         -4.7113719190        0.4964660929       -2.0530082563
 H         -5.6568457176        0.0148837609       -1.8534695626
 H         -4.1266927828        0.0087241340       -2.8191531668
 H         -5.5122185959        2.5296530607       -1.6464757354
 H         -3.9830945479        2.5151263898       -2.6195592786
 H         -4.4145518533        1.0398052982        0.0775453888
