  62
        -98.94130469
 C         -1.7842578201       -0.6239762707       -0.0686544998
 C         -2.9539996700       -1.1058762714        0.5771902198
 C         -4.2357196500       -0.6869804812        0.0011867100
 C         -4.2498597502        0.1272559995       -1.0691603894
 C         -5.4740962602        0.6205584298       -1.7914567190
 C         -6.1232185905        1.8557406393       -1.1524419782
 C         -6.8636923605        1.5960048382        0.1601071416
 H         -7.4490958006        2.4910635579        0.3799087322
 H         -7.5665846103        0.7736129082        0.0229262610
 C         -5.9475454104        1.2996088375        1.3556955614
 H         -4.9296098005        1.6208024978        1.1225020217
 H         -6.2760018006        1.8824195468        2.2192208618
 C         -5.9185636702       -0.1675662828        1.7840759004
 H         -5.2116419702       -0.2692183533        2.6113363903
 H         -6.9056622701       -0.4627314832        2.1467567501
 C         -5.4944430500       -1.1409613519        0.6766549497
 H         -6.2970190499       -1.2543636316       -0.0519668104
 H         -5.2955892098       -2.1135226122        1.1335858290
 H         -5.3516644806        2.6125470693       -0.9923482276
 H         -6.8377689705        2.2579261597       -1.8744232079
 H         -6.2078777401       -0.1833406302       -1.8587466396
 H         -5.1536066902        0.8844598506       -2.8017327689
 O         -3.1109062202        0.5909518801       -1.6443915790
 C         -1.8529138902        0.2460647000       -1.1584061392
 O         -0.9187011603        0.7736521506       -1.7894329488
 O         -2.9263143299       -1.8571491221        1.5872130892
 C         -0.4502036400       -1.0548225309        0.5162268999
 C          0.4480171698        0.1320226491        0.7431895908
 C          0.2915459296        0.9130470882        1.8837717413
 C          1.1145445294        1.9997381282        2.1193775521
 C          2.1091226594        2.3345451390        1.2166136324
 C          2.2585368496        1.5722353399        0.0676763018
 C          1.4433757798        0.4730090799       -0.1593751090
 H          1.5669371699       -0.1063972294       -1.0611947894
 N          3.2936130695        1.8980789807       -0.8448948779
 S          4.8054976596        1.3868667606       -0.3354543082
 O          5.1640460194        2.1217489898        0.8503334123
 O          5.6866228196        1.5280774216       -1.4723496981
 C          4.5730508599       -0.3375623397        0.0593265105
 C          4.1265860899       -0.6801794407        1.3200476003
 C          3.8406097402       -2.0087744809        1.5901806293
 C          4.0007385003       -2.9654602402        0.5992244286
 C          4.4523047903       -2.6053898492       -0.6614533911
 C          4.7351322201       -1.2776338090       -0.9386602601
 H          5.0879588401       -0.9547558282       -1.9052287799
 H          4.5772203905       -3.3528218886       -1.4285921216
 H          3.7707968705       -3.9980786304        0.8110237879
 H          3.4849107102       -2.2911000217        2.5681365291
 H          4.0143020698        0.0926374488        2.0628568108
 H          3.1167556496        1.5368870513       -1.7724188182
 H          2.7744837692        3.1652202390        1.3876400830
 H          0.9826717993        2.5904392775        3.0132576425
 H         -0.4865781403        0.6569653676        2.5895977511
 H         -0.7134655199       -1.4748702917        1.5002234996
 C          0.2541339802       -2.1644447403       -0.2522826209
 C         -0.5262650796       -3.3001439800       -0.8404519517
 C          0.1652397103       -2.3213945492       -1.7394239810
 H          1.0487888904       -2.6483400587       -2.2683918812
 H         -0.4348368798       -1.6147050289       -2.2911547905
 H         -0.1262220994       -4.2991787300       -0.7591289724
 H         -1.6031264796       -3.2518332502       -0.7684763117
 H          1.2089430303       -2.4150971204        0.2005887789
