  62
        -98.93782924
 C         -1.9999253306       -0.8607314982        0.5564266151
 C         -2.1937457497       -0.1669446054       -0.6596568114
 C         -2.4468710502        1.2807257126       -0.5569460196
 C         -2.4478721390        1.8685008203        0.6538250772
 C         -2.6055749610        3.3210470519        1.0536202815
 C         -3.1772736442        4.3442564287        0.0751582331
 C         -4.6429712904        4.1269666783       -0.2979473534
 H         -5.2588408061        4.3177847623        0.5843975292
 H         -4.9123156109        4.8633597826       -1.0581895836
 C         -4.9914768154        2.7324453896       -0.8121338158
 H         -4.8365037999        1.9992188091       -0.0179534406
 H         -6.0572831704        2.7230920390       -1.0556081480
 C         -4.2263282236        2.2843229738       -2.0561277727
 H         -4.6904129863        1.3606322186       -2.4114051344
 H         -4.3299321828        3.0350165498       -2.8417499201
 C         -2.7286269362        1.9955905346       -1.8468871716
 H         -2.3969303251        1.3243931778       -2.6445577859
 H         -2.1329875407        2.9028839874       -1.9174305233
 H         -2.5610539955        4.3944577297       -0.8175860057
 H         -3.1020298717        5.3177756901        0.5673954888
 H         -3.2159250105        3.3138365947        1.9624560603
 H         -1.6048647344        3.6509721465        1.3559202617
 O         -2.2306680204        1.1584649070        1.8011613979
 C         -1.9986740838       -0.2046296589        1.7838234207
 O         -1.8160219281       -0.7110390511        2.9118707304
 H          0.4995568311       -0.8305980588        0.4713450109
 C          0.6117353514       -1.7102145431       -0.1466669139
 C         -0.4363548042       -2.6164950293       -0.2444215920
 C         -0.2638690165       -3.7470174534       -1.0329778098
 C          0.9265041965       -3.9522885732       -1.7093994269
 C          1.9625673055       -3.0422369500       -1.6173552491
 C          1.7974674869       -1.9034438674       -0.8346323092
 N          2.8114550421       -0.9342817947       -0.7679310656
 S          2.8534070223        0.1899061664        0.4811509718
 O          2.8418322550       -0.4760745436        1.7659102964
 O          1.8279569745        1.1796211053        0.2590243579
 C          4.4573715750        0.9085345678        0.1811535221
 C          4.5848888211        1.8373210641       -0.8346384219
 C          5.8340049758        2.3775608244       -1.0956797327
 C          6.9290768782        1.9820936541       -0.3415419638
 C          6.7854915178        1.0509497026        0.6758841519
 C          5.5389145165        0.5056025355        0.9411847755
 H          5.3764649365       -0.2151747305        1.7263651205
 H          7.6375011939        0.7480534225        1.2627924898
 H          7.8999421356        2.4046667742       -0.5464438736
 H          5.9485909048        3.1036584950       -1.8842145043
 H          3.7033708344        2.1188402636       -1.3870314213
 H          3.7282519998       -1.2888924816       -1.0006540839
 H          2.8866415371       -3.2007232307       -2.1514343936
 H          1.0482499024       -4.8353587084       -2.3181094620
 H         -1.0620692665       -4.4660900546       -1.1186307382
 C         -1.6983045381       -2.3465325973        0.5416811222
 H         -1.5077908938       -2.6274321258        1.5893351046
 C         -2.8963482993       -3.1249208423        0.0359573314
 C         -3.1919048719       -4.4952735122        0.5650983273
 C         -4.0582528293       -3.3376299032        0.9576796183
 H         -5.0569721474       -3.2758255461        0.5524766332
 H         -3.9690472971       -2.9464162365        1.9612182747
 H         -3.6008791018       -5.2315995514       -0.1102678739
 H         -2.5229599973       -4.8993150765        1.3100929109
 H         -3.1139846691       -2.9164787849       -1.0051423319
 O         -2.1513907593       -0.7267995215       -1.7869998552
