  62
        -98.93922671
 C         -2.3467637192       -0.4513898702        0.6046522398
 C         -3.1466690795       -0.7435850692       -0.5278984402
 C         -4.1312292295        0.2872446712       -0.8909675192
 C         -4.1850146592        1.4429185607       -0.2063141182
 C         -5.1084278392        2.5978958710       -0.4843064670
 C         -6.5019819190        2.4487260806        0.1415274532
 C         -7.4091169193        1.4166935013       -0.5297521175
 H         -8.4154855392        1.5704511811       -0.1352656671
 H         -7.4465861995        1.6111381422       -1.6020259573
 C         -6.9995906294       -0.0419214990       -0.2826545688
 H         -6.3162213592       -0.0884644597        0.5684726910
 H         -7.8823501294       -0.6276346991       -0.0165031790
 C         -6.3447148897       -0.7282512381       -1.4814721595
 H         -6.0644758198       -1.7421303183       -1.1848134404
 H         -7.0654116399       -0.8038772273       -2.2986073594
 C         -5.0866382898       -0.0224074278       -2.0041190492
 H         -4.5788738400       -0.6957680073       -2.6988053299
 H         -5.3596416198        0.8886666727       -2.5359742684
 H         -6.9909695089        3.4238961807        0.0830154341
 H         -6.3848312488        2.1991340298        1.1987127829
 H         -4.6323112090        3.4842438506       -0.0591975364
 H         -5.2049628094        2.7389372619       -1.5612634669
 O         -3.3592609889        1.7090420697        0.8418896018
 C         -2.4423392789        0.7693792793        1.2781482908
 O         -1.7735587887        1.1298156784        2.2694759710
 H          0.9978980911       -0.4958556319        2.2323967890
 C          1.0966284009       -0.6563089810        1.1670981389
 C          0.0116538207       -1.1340335803        0.4485256287
 C          0.1382164303       -1.2929207892       -0.9288849214
 C          1.3330936702       -0.9983100488       -1.5582114615
 C          2.4187754304       -0.5324733395       -0.8355449613
 C          2.2938553108       -0.3452126506        0.5338051388
 N          3.3861756310        0.1325083586        1.2753548990
 S          4.2809171610        1.4166176290        0.6701389098
 O          4.8962767113        2.0231249480        1.8304398102
 O          3.4789280009        2.2846883998       -0.1604608493
 C          5.5441706007        0.6253605197       -0.3053007911
 C          5.7770424404        1.0447803507       -1.6003727708
 C          6.7752864402        0.4253334712       -2.3364944516
 C          7.5195570602       -0.5963592993       -1.7671105526
 C          7.2747285705       -1.0043534904       -0.4642925928
 C          6.2795487407       -0.3883481009        0.2774013379
 H          6.0605841309       -0.6742016017        1.2925139777
 H          7.8551316205       -1.7997220208       -0.0252195536
 H          8.2948343900       -1.0775173189       -2.3422039731
 H          6.9669619600        0.7416732820       -3.3492556014
 H          5.1688197204        1.8387947611       -2.0039940900
 H          3.1875343612        0.2627972879        2.2568769491
 H          3.3485515203       -0.2938756192       -1.3254611514
 H          1.4216602099       -1.1297239180       -2.6260313816
 H         -0.7137788298       -1.6397802187       -1.4940670615
 C         -1.2948525992       -1.4065522808        1.1479562388
 H         -1.1702779989       -1.1204605716        2.2042103790
 C         -1.7291849894       -2.8657333607        1.1180420377
 C         -0.9863711697       -3.9407435302        0.3873875767
 C         -0.9357374893       -3.8849564214        1.8822895767
 H         -1.4638836392       -4.6338699018        2.4528566362
 H         -0.0146262292       -3.5513919719        2.3371154368
 H         -1.5709278798       -4.7156291897       -0.0846676338
 H         -0.0971907498       -3.6710706798       -0.1598516433
 H         -2.8079108594       -2.9714941706        1.1518150979
 O         -3.0615475898       -1.7953123986       -1.2102337811
