  62
        -98.94418472
 C         -1.6037705244       -1.4531258040        0.3812941993
 C         -1.7628322524       -0.2505594162        1.1203054238
 C         -3.0310227522        0.4675801807        0.9414001274
 C         -3.9767889470       -0.0633778968        0.1459923246
 C         -5.3075307115        0.5654530302       -0.1477481171
 C         -5.2454454686        1.4462195624       -1.4032692929
 C         -4.0725473613        2.4263626530       -1.4115572210
 H         -3.1385861193        1.8626932214       -1.4717661250
 H         -4.1504887316        3.0181523948       -2.3260799780
 C         -4.0208070109        3.3643847004       -0.1975331064
 H         -4.9936160288        3.3885564540        0.2947852758
 H         -3.8105223384        4.3771928481       -0.5473314349
 C         -2.9395641773        3.0121726402        0.8259020449
 H         -1.9862605722        2.8752377631        0.3103648222
 H         -2.8306872406        3.8581157132        1.5099393345
 C         -3.2075929840        1.7651956934        1.6786818825
 H         -2.4761323483        1.7486288437        2.4921127466
 H         -4.2048716283        1.8263046964        2.1193561436
 H         -6.1843767526        1.9970495284       -1.4844514312
 H         -5.1559094921        0.7971396862       -2.2774136844
 H         -6.0348892087       -0.2319524080       -0.3098893320
 H         -5.6197609309        1.1580573636        0.7100875997
 O         -3.8049796495       -1.2309933526       -0.5197585479
 C         -2.6138382716       -1.9413751963       -0.4484295270
 O         -2.6099948071       -2.9645525112       -1.1607750306
 H          2.1886633069       -1.1122305791        0.8022593518
 C          1.9292529259       -1.2940044490       -0.2289869314
 C          0.6944856485       -1.8394632625       -0.5487752142
 C          0.3934381925       -2.0804339851       -1.8853627967
 C          1.3118101846       -1.7758481808       -2.8730898933
 C          2.5392318993       -1.2229545626       -2.5517809693
 C          2.8522331952       -0.9830565845       -1.2189107652
 N          4.0998091467       -0.4522654882       -0.8662371025
 S          4.2755422770        0.5853550628        0.4306560792
 O          5.5632742756        1.2065528378        0.2091371613
 O          4.1288610787       -0.1386319655        1.6678089641
 C          2.9836750292        1.7998399370        0.2497237925
 C          3.0740424331        2.6823249581       -0.8101455060
 C          2.0752154711        3.6250341954       -0.9848405828
 C          1.0063791745        3.6702249267       -0.1012776207
 C          0.9345274776        2.7829272076        0.9602738061
 C          1.9299382749        1.8354131406        1.1378401991
 H          1.8857178465        1.1285154798        1.9499922888
 H          0.1042911336        2.7993415091        1.6476562630
 H          0.2270976851        4.4039239564       -0.2385290577
 H          2.1298768113        4.3205155322       -1.8069559157
 H          3.9274091265        2.6284017119       -1.4665504249
 H          4.6860520810       -0.1871902226       -1.6434974451
 H          3.2540143748       -0.9867100583       -3.3250894909
 H          1.0679242704       -1.9683517952       -3.9069992942
 H         -0.5640984930       -2.5082618695       -2.1397062609
 C         -0.2807001488       -2.1787765513        0.5538754625
 H          0.1388705148       -1.7914766955        1.4927865208
 C         -0.4167717105       -3.6838349811        0.6823171626
 C          0.6862060129       -4.4552529855        1.3401201168
 C         -0.6315973829       -4.2896727646        2.0349813150
 H         -1.2847593831       -5.1453554257        2.1177564162
 H         -0.6805557054       -3.6203060320        2.8817518670
 H          1.5323469577       -3.8988428039        1.7157860032
 H          0.9410417500       -5.4269019242        0.9456725306
 H         -0.9241317070       -4.1441594619       -0.1552079581
 O         -0.8834271791        0.1972628752        1.9030697836
