  62
        -98.93617059
 C          2.4834922952        0.9210260408        0.5806521882
 C          2.8722812590       -0.3131682095        1.1632634094
 C          4.2700731918       -0.7135223359        0.9744989397
 C          5.1067855625        0.0955270988        0.3002605742
 C          6.5679210413       -0.1549597143        0.0425048814
 C          6.8421616541       -1.0468849982       -1.1760444421
 C          6.5043147825       -2.5264130581       -0.9883658435
 H          6.9455472000       -3.0648058816       -1.8294722739
 H          6.9815771165       -2.8945358204       -0.0796920164
 C          5.0005704119       -2.8321030776       -0.9421422901
 H          4.4424691219       -1.9849790799       -1.3478198974
 H          4.7836097439       -3.6920060591       -1.5798533018
 C          4.4609119623       -3.1553889680        0.4512872572
 H          3.3824788451       -3.3161053624        0.3722375713
 H          4.9139211773       -4.0804033148        0.8149893368
 C          4.6985551344       -2.0532981130        1.4919592833
 H          4.0933503737       -2.2774235609        2.3738893676
 H          5.7483756135       -2.0305261047        1.7838392458
 H          6.2867118088       -0.6518193474       -2.0296456309
 H          7.9070930868       -0.9657196138       -1.4056438188
 H          7.0234327381        0.8214214299       -0.1357626332
 H          7.0254155521       -0.5959645681        0.9285403651
 O          4.7053261278        1.2816855860       -0.2238580234
 C          3.3863600217        1.7162647393       -0.1273803393
 O          3.1810896902        2.8002440399       -0.7015033736
 O          2.0835438851       -1.0436793111        1.8226920099
 C          1.0327409836        1.3256272412        0.7637251367
 C          0.1652419475        0.8253308312       -0.3629369749
 C          0.5455945223        0.9642510060       -1.6941272298
 C         -0.2843634116        0.5231120125       -2.7087134904
 C         -1.5135082548       -0.0429010170       -2.4192193536
 C         -1.8998609734       -0.1916212509       -1.0924757761
 C         -1.0536226678        0.2296583050       -0.0759234357
 H         -1.3606186205        0.0907778485        0.9503883511
 N         -3.1337489800       -0.7704647400       -0.7588076171
 S         -3.9561385716       -0.1357277993        0.5750284901
 O         -3.8397646267        1.3045564598        0.5802251996
 O         -3.5083663828       -0.8164252940        1.7637837262
 C         -5.6279065848       -0.6231839508        0.1933372161
 C         -6.0459386383       -1.8957422311        0.5341272010
 C         -7.3348878549       -2.2864994535        0.2077950286
 C         -8.1788180192       -1.4041529842       -0.4504144102
 C         -7.7455726089       -0.1296710483       -0.7841561564
 C         -6.4574155146        0.2675365910       -0.4617400563
 H         -6.0805821071        1.2510647391       -0.6924440111
 H         -8.4051539509        0.5549865736       -1.2925846197
 H         -9.1817091225       -1.7108037087       -0.7022713908
 H         -7.6762974006       -3.2752888524        0.4684136746
 H         -5.3577257143       -2.5426238376        1.0529998108
 H         -3.7417446225       -0.8945194175       -1.5567754223
 H         -2.1655004162       -0.3728099475       -3.2137045623
 H          0.0229580644        0.6363248726       -3.7375713239
 H          1.4910242867        1.4328501093       -1.9234424384
 H          0.7075739023        0.8007884787        1.6774999146
 C          0.8429399977        2.8156019144        1.0136002326
 C          0.2657501158        3.7576920997        0.0049083803
 C         -0.5327351889        3.3807317183        1.2145723827
 H         -0.6762864189        4.1181134308        1.9902505910
 H         -1.3784446586        2.7214851600        1.0763567435
 H          0.6911809841        4.7476394237       -0.0547294372
 H         -0.0367331965        3.3578691700       -0.9499565447
 H          1.6275052567        3.2176901519        1.6474612321
