  62
        -98.94457295
 C         -2.0707249126       -1.1329333356       -0.6230490472
 C         -1.5370525501       -0.0036442992       -1.2899336245
 C         -2.2110005197        1.2785258570       -1.0290556674
 C         -3.2503644923        1.3227928630       -0.1784747459
 C         -4.0049012775        2.5642357160        0.1987586534
 C         -3.4152632608        3.2288370251        1.4495692262
 C         -1.9014152693        3.4358893488        1.3916577133
 H         -1.6113071920        3.9644895070        2.3030891287
 H         -1.3969837050        2.4666120366        1.4174650251
 C         -1.4112782651        4.2224147807        0.1679835094
 H         -2.2392403951        4.7768202986       -0.2767494960
 H         -0.6700603752        4.9528102140        0.4995505335
 C         -0.7376008585        3.3571378993       -0.8985742094
 H         -0.0066062273        2.7058585977       -0.4127841993
 H         -0.1945151505        4.0152180905       -1.5826167579
 C         -1.6808837634        2.4902870372       -1.7431803121
 H         -1.1112484324        2.1105866933       -2.5965126924
 H         -2.5016628363        3.1025447483       -2.1235899135
 H         -3.6403413899        2.6011630578        2.3151529148
 H         -3.9094895910        4.1923935015        1.5909275436
 H         -3.9851812406        3.2608435346       -0.6373846662
 H         -5.0404226888        2.2850693053        0.4027991181
 O         -3.7243556615        0.2229199128        0.4623145863
 C         -3.1396719510       -1.0161820745        0.2689418845
 O         -3.6661839361       -1.9369707648        0.9280794402
 O         -0.5568040691       -0.0405526189       -2.0776664211
 C         -1.4951566857       -2.5358041622       -0.7546793640
 C         -0.4509841744       -2.7514963600        0.3114211616
 C         -0.4831429527       -3.8632569804        1.1434876749
 C          0.4538278297       -4.0083349077        2.1520629158
 C          1.4171378239       -3.0391649949        2.3635531439
 C          1.4589022034       -1.9220052962        1.5341508106
 C          0.5462394911       -1.8044085081        0.4983646833
 H          0.5829680283       -0.9430653713       -0.1447244186
 N          2.4222247593       -0.9244778611        1.7274941025
 S          2.1223624984        0.7067422353        1.4503757238
 O          2.7949325666        1.3847524555        2.5411545994
 O          0.7134235936        0.9761309296        1.3094208615
 C          3.0279603538        1.0360884923       -0.0489121848
 C          4.3729900145        1.3280125962        0.0873575278
 C          5.1315249574        1.5680953371       -1.0455075886
 C          4.5359821148        1.5117871045       -2.2969516905
 C          3.1873836447        1.2184663830       -2.4174485082
 C          2.4210411027        0.9760401885       -1.2865360993
 H          1.3705992277        0.7448238841       -1.3772286676
 H          2.7160593405        1.1717623391       -3.3861501935
 H          5.1241421104        1.6986059734       -3.1816709406
 H          6.1805471968        1.7981261757       -0.9504659638
 H          4.7904927520        1.3756984756        1.0795427827
 H          2.9950499859       -1.0488347948        2.5489711206
 H          2.1291978678       -3.1390462970        3.1689059273
 H          0.4207742063       -4.8752173597        2.7946934679
 H         -1.2600218477       -4.6022343865        1.0120112103
 H         -2.3343096904       -3.2155937777       -0.5344600980
 C         -1.0032531503       -2.8635243154       -2.1569410907
 C          0.4431050547       -2.9952365227       -2.5166726449
 C         -0.4204961058       -4.2162916188       -2.4428564147
 H         -0.6967591929       -4.7152689951       -3.3593203657
 H         -0.2747929582       -4.8799713972       -1.6037517441
 H          0.7501266407       -2.6306449461       -3.4847222687
 H          1.1780531550       -2.8419765030       -1.7420486739
 H         -1.6508551651       -2.4420632292       -2.9187480037
