  62
        -98.93799259
 C         -2.0535808626       -1.5285798447       -0.3120897743
 C         -2.4110574914       -0.4220483411       -1.1226235956
 C         -3.7215818105        0.1873611731       -0.8283624007
 C         -4.4916906581       -0.3206504892        0.1491065627
 C         -5.8167032934        0.2362056410        0.5813200013
 C         -5.6479120910        1.2591477874        1.7131443540
 C         -4.5813015298        2.3182200533        1.4341565529
 H         -4.5728017912        3.0038287882        2.2843060731
 H         -3.6003225079        1.8381309021        1.3998030174
 C         -4.7999692071        3.1131206320        0.1392597417
 H         -4.6315064291        4.1721997289        0.3456142227
 H         -5.8341836968        3.0076388889       -0.1905584846
 C         -3.8624480411        2.7296064609       -1.0075166246
 H         -2.8266690488        2.7448090952       -0.6570509839
 H         -3.9515602218        3.4900639079       -1.7882547339
 C         -4.1301959936        1.3686907265       -1.6629935814
 H         -5.1828616002        1.2968917925       -1.9445671028
 H         -3.5255791468        1.3158003791       -2.5734289271
 H         -6.6096554016        1.7458120477        1.8849320159
 H         -5.3689126322        0.7248331822        2.6241388070
 H         -6.3055549566        0.7006475022       -0.2728164563
 H         -6.4350950764       -0.5889618350        0.9385827265
 O         -4.1210794005       -1.3915042301        0.8965342095
 C         -2.8984377525       -2.0063505440        0.6945536651
 O         -2.6807039536       -2.9691163518        1.4575814722
 O         -1.7013078412        0.0458345994       -2.0483103504
 C         -0.7370134310       -2.2793790429       -0.4415735595
 C          0.3090735786       -1.6612986906        0.4506423480
 C          0.9714850203       -2.4412058882        1.3931003747
 C          1.9074889741       -1.8835555405        2.2451947444
 C          2.2193508608       -0.5394980054        2.1529050681
 C          1.5690746663        0.2477864028        1.2099874455
 C          0.6103775893       -0.3071394905        0.3748065525
 H          0.1051226378        0.3240274078       -0.3400877941
 N          1.8951193739        1.6166625717        1.0584440069
 S          2.8179657278        1.9606226829       -0.3000620685
 O          3.1754941402        3.3569506007       -0.1838189328
 O          2.1039759137        1.5648727733       -1.4833411340
 C          4.2727840543        0.9458458893       -0.0937960221
 C          5.3785275256        1.4784354805        0.5398870190
 C          6.4767566061        0.6650888776        0.7692460529
 C          6.4453216381       -0.6637090551        0.3738378104
 C          5.3267928678       -1.1841351596       -0.2589908442
 C          4.2271395461       -0.3744347228       -0.4959087888
 H          3.3430170269       -0.7424937209       -0.9911225783
 H          5.3026242736       -2.2168875970       -0.5673657563
 H          7.2980481874       -1.2979652760        0.5577300183
 H          7.3496281195        1.0680209623        1.2571891210
 H          5.3594347275        2.5177366980        0.8262567632
 H          2.3586673103        2.0076086409        1.8681266891
 H          2.9554228610       -0.0979338930        2.8082665899
 H          2.4026959666       -2.5001945569        2.9791078226
 H          0.7283622573       -3.4908918250        1.4671961294
 H         -0.9461616819       -3.2851630365       -0.0420428772
 C         -0.2726069897       -2.4747986880       -1.8770899884
 C          0.7718801924       -1.6459802226       -2.5544927474
 C          1.0871953689       -3.0518165961       -2.1462248245
 H          1.1899703771       -3.8029337209       -2.9146789787
 H          1.7384584184       -3.1943268159       -1.2964185413
 H          0.6238768892       -1.4303687531       -3.6022895231
 H          1.2146755775       -0.8193666761       -2.0217629292
 H         -1.0847600087       -2.8220085470       -2.5089895075
