  62
        -98.94911353
 C          1.2831041584        1.5344659670        0.5480585932
 C          2.2303730696        1.1947759964       -0.4481612084
 C          3.2031729040        0.1614484148       -0.0743102648
 C          3.1555306418       -0.3948401812        1.1494491814
 C          4.0630317633       -1.4773210633        1.6661100100
 C          3.6163126299       -2.8893946985        1.2619059221
 C          3.8593863126       -3.2537634222       -0.2033797724
 H          4.8939522704       -3.0310017056       -0.4681729284
 H          3.7243778263       -4.3339115205       -0.2892744542
 C          2.9102497478       -2.5631064361       -1.1931085236
 H          2.5477283330       -3.2961093843       -1.9184492095
 H          2.0288800378       -2.1962427671       -0.6600303081
 C          3.5411643975       -1.4181708023       -1.9870105532
 H          4.3149972096       -1.8169281802       -2.6475645226
 H          2.7636759424       -0.9678885866       -2.6097906845
 C          4.1602954300       -0.3087916481       -1.1271262684
 H          4.3833412083        0.5411105524       -1.7770940929
 H          5.0877527085       -0.6569443942       -0.6731596613
 H          4.1638170359       -3.5984535226        1.8876772911
 H          2.5515483650       -2.9978931395        1.4852014681
 H          5.0829893071       -1.3024058966        1.3227742164
 H          4.0443803092       -1.4081386880        2.7559602359
 O          2.2482566493       -0.0196236054        2.0892708865
 C          1.2633224828        0.9091269512        1.7937667937
 O          0.4394731685        1.0951346845        2.7144856390
 O          2.2577598492        1.7152917637       -1.5937192114
 C          0.1520891538        2.4908919622        0.2199481984
 C         -0.7062017948        1.9033468139       -0.8776206268
 C         -1.3466427895        2.6672483193       -1.8454810747
 C         -2.1310300098        2.0561865839       -2.8092484377
 C         -2.3092672171        0.6840577526       -2.8234341559
 C         -1.6755534878       -0.0878485910       -1.8564487537
 C         -0.8879337963        0.5283571761       -0.8991233295
 H         -0.3818099896       -0.0854476699       -0.1716372863
 N         -1.8057503237       -1.4837702715       -1.8247774453
 S         -1.8152358021       -2.2897665937       -0.3599894815
 O         -0.4992914137       -2.3034684978        0.2273776186
 O         -2.3760421253       -3.5861545975       -0.6770664890
 C         -2.9686018539       -1.3722610265        0.6453569819
 C         -4.3063282405       -1.4737204673        0.3110015121
 C         -5.2379488449       -0.7398277415        1.0250358178
 C         -4.8183515749        0.0879477749        2.0560142608
 C         -3.4748132723        0.1751922190        2.3829208976
 C         -2.5370688727       -0.5606897309        1.6738942976
 H         -1.4873526410       -0.5013464712        1.9171412311
 H         -3.1373996231        0.8141829410        3.1835928472
 H         -5.5410179813        0.6658878234        2.6100761755
 H         -6.2842803668       -0.8116668954        0.7758890103
 H         -4.5920980123       -2.1380247900       -0.4883344983
 H         -2.4672835474       -1.8730831382       -2.4793615238
 H         -2.9197542024        0.2133546674       -3.5784105821
 H         -2.6159877943        2.6597872466       -3.5612887084
 H         -1.2241705413        3.7380738322       -1.8504861971
 H         -0.4665819926        2.5541358484        1.1283309691
 C          0.6805127620        3.8721560719       -0.1066499606
 C         -0.1194646440        5.0906389417        0.2411416097
 C          1.1186048140        4.7606111669        1.0176399282
 H          1.9972259444        5.3724886958        0.8796186061
 H          1.0076113823        4.3780434240        2.0221823019
 H         -0.0893410929        5.9355669057       -0.4302478484
 H         -1.0725597712        4.9437315372        0.7264773211
 H          1.2710317740        3.8860637342       -1.0150156542
