  62
        -98.94414020
 C          2.1992135837        0.7781416336       -0.0254444288
 C          2.8930570662        0.0691963998        0.9830494178
 C          3.6880342186       -1.0800857640        0.5303306006
 C          3.6811449307       -1.4106143096       -0.7743362346
 C          4.4870298632       -2.5219533240       -1.3807237333
 C          5.8562506920       -2.0171276032       -1.8574374139
 C          6.6082832813       -1.1920375970       -0.8131209122
 H          7.5709801037       -0.9158530261       -1.2485121806
 H          6.0609018363       -0.2646540091       -0.6295974419
 C          6.8396505932       -1.9151407952        0.5210992741
 H          7.8722057685       -1.7490443199        0.8352639362
 H          6.7107628565       -2.9898708671        0.3877964258
 C          5.9445056154       -1.4362949009        1.6655564167
 H          6.3340690962       -1.8511145157        2.5990705034
 H          6.0001283828       -0.3475070657        1.7435127019
 C          4.4669746002       -1.8370603661        1.5691231544
 H          4.3875763547       -2.9135949701        1.4036106499
 H          3.9953496744       -1.6019202290        2.5281142341
 H          5.7063253197       -1.3944583792       -2.7423577922
 H          6.4600017878       -2.8792320362       -2.1465173163
 H          4.6158803758       -3.3142558120       -0.6458086947
 H          3.9374222612       -2.9177638757       -2.2363749389
 O          2.9657315812       -0.7325363036       -1.7073725133
 C          2.2138739979        0.3817495006       -1.3631317612
 O          1.6158505648        0.9128987166       -2.3164845151
 H         -0.0619457816       -0.1886052619        0.8484159963
 C         -0.6646531489        0.5681304223        0.3598894362
 C         -0.0772304098        1.7800495914        0.0167026606
 C         -0.8671119994        2.7465391505       -0.5913524221
 C         -2.2000593058        2.4918728938       -0.8654294543
 C         -2.7740002467        1.2773690331       -0.5395480464
 C         -1.9974191258        0.3080226968        0.0822733278
 N         -2.5697644186       -0.9341262425        0.4115656084
 S         -3.9877769863       -0.9326361731        1.3126300520
 O         -4.0745486636        0.2353955862        2.1584107819
 O         -4.0109470814       -2.2147431437        1.9826519837
 C         -5.2772695391       -0.8958063390        0.0858658275
 C         -5.2972117632       -1.8945947106       -0.8678177552
 C         -6.2989762240       -1.8851056893       -1.8251570523
 C         -7.2597509420       -0.8847654690       -1.8108059856
 C         -7.2279428063        0.1087134367       -0.8442565357
 C         -6.2278345882        0.1057241735        0.1157248738
 H         -6.1593017087        0.8600624340        0.8832245552
 H         -7.9760347643        0.8849921443       -0.8346169526
 H         -8.0379957309       -0.8800346365       -2.5575220242
 H         -6.3268253404       -2.6559777234       -2.5783851212
 H         -4.5342995983       -2.6548027125       -0.8419227456
 H         -1.9092354773       -1.5928667093        0.7982072708
 H         -3.8091702692        1.0733594509       -0.7590068539
 H         -2.7996342352        3.2503555943       -1.3449794750
 H         -0.4385883818        3.6992666862       -0.8552360077
 C          1.3768036157        1.9930760035        0.3612705333
 H          1.4559572753        2.0629230453        1.4571570234
 C          1.9690648821        3.2461128613       -0.2493392280
 C          1.8283492955        4.5667876373        0.4449392115
 C          3.1579716598        3.8770403297        0.4093259775
 H          3.9376482962        4.2863169413       -0.2154034532
 H          3.5223638999        3.4188245631        1.3174971252
 H          1.6974577081        5.4541165278       -0.1558157752
 H          1.2924388640        4.5845027274        1.3819948632
 H          1.9478177029        3.2293130927       -1.3331905876
 O          2.8446325373        0.3792206560        2.2053261573
