  62
        -98.93338893
 C          2.4651591822        1.1558178721        0.6071403547
 C          3.3386387637        0.9801531616       -0.4919969208
 C          4.4293954615       -0.0001452253       -0.3120918399
 C          4.5174099026       -0.7011503636        0.8324897284
 C          5.5257987863       -1.7304814517        1.2990922541
 C          6.4879966808       -2.3867883746        0.3122289746
 C          5.8248992041       -3.3021177646       -0.7164348648
 H          6.5902182589       -3.6329202225       -1.4219655781
 H          5.4440427926       -4.1869074233       -0.1999023897
 C          4.6634945060       -2.6887142774       -1.4948217608
 H          4.2882049830       -3.4473272360       -2.1871792906
 H          3.8471436772       -2.4501934303       -0.8094722037
 C          5.0075398764       -1.4442781821       -2.3108849372
 H          5.8470880688       -1.6604326515       -2.9743749461
 H          4.1399318083       -1.2102327589       -2.9334101402
 C          5.3406659249       -0.1855609358       -1.4914226152
 H          5.1887391705        0.6849151406       -2.1361548298
 H          6.3810816069       -0.1816890306       -1.1758968500
 H          7.0927028601       -1.6327030108       -0.1827897497
 H          7.1710825087       -2.9998213697        0.9065720420
 H          6.1150238797       -1.2362574637        2.0796723096
 H          4.9424576651       -2.5087115170        1.8016914488
 O          3.6299084269       -0.5177062766        1.8556036690
 C          2.5983381619        0.3962730807        1.7705548510
 O          1.8752394613        0.4489264786        2.7873841005
 O          3.2412620475        1.6060455984       -1.5774229377
 C          1.3008293725        2.1337163458        0.6011921564
 C          0.0780659730        1.4469304105        0.0500404019
 C          0.0730340774        0.9032449677       -1.2315793156
 C         -1.0477763591        0.2493452405       -1.7081386543
 C         -2.1789345310        0.1162798687       -0.9204773774
 C         -2.1749104354        0.6327773170        0.3675939823
 C         -1.0516410410        1.3008661608        0.8401460609
 H         -1.0471129046        1.6908302656        1.8493036381
 N         -3.3153984039        0.5002360541        1.1755938855
 S         -4.1013670223       -0.9815596711        1.2365894840
 O         -4.7981027801       -0.9824975139        2.5042946313
 O         -3.1925970703       -2.0791594087        1.0002520726
 C         -5.2969588995       -0.8777726756       -0.0797903238
 C         -5.3706542690       -1.8835957142       -1.0233316379
 C         -6.3160429763       -1.7879630593       -2.0328306750
 C         -7.1670817717       -0.6945572328       -2.0799132153
 C         -7.0822278641        0.3057691552       -1.1228880342
 C         -6.1406666944        0.2154322143       -0.1103268942
 H         -6.0451713885        0.9692764432        0.6530305144
 H         -7.7454548451        1.1547599743       -1.1631266901
 H         -7.9007123662       -0.6216959662       -2.8671593736
 H         -6.3837840981       -2.5653468110       -2.7768792063
 H         -4.6839774257       -2.7121616198       -0.9506785178
 H         -3.2069740782        0.8878021952        2.1017791198
 H         -3.0513451984       -0.3991229080       -1.2873903843
 H         -1.0421007396       -0.1643518054       -2.7052612727
 H          0.9591174857        0.9965408733       -1.8411920115
 H          1.1075418228        2.3489205803        1.6641774310
 C          1.6261898585        3.4574000499       -0.0775419603
 C          0.9192480255        3.9668049677       -1.2944679974
 C          0.6603931504        4.6002490925        0.0368780632
 H          1.0465881121        5.5895613733        0.2300443991
 H         -0.2895094351        4.3965403911        0.5088090522
 H          1.5078415445        4.5052781820       -2.0214065709
 H          0.1397625005        3.3608819921       -1.7279518129
 H          2.6791032550        3.7053069511        0.0011742937
