  62
        -98.94510344
 C          0.9731048292        1.2164826504        0.4736556603
 C          1.4872345393        0.0398259404        1.0726698501
 C          2.2458134896       -0.8607870893        0.1949793800
 C          2.3528084598       -0.5638475090       -1.1126820299
 C          3.1137402501       -1.3800305286       -2.1168624799
 C          4.5672294500       -0.9023909983       -2.2404814395
 C          5.2792639398       -0.7446388785       -0.8968794894
 H          6.3054434097       -0.4358037483       -1.1070903591
 H          4.8073211795        0.0669359213       -0.3383474593
 C          5.2923086898       -2.0137419987       -0.0334179397
 H          6.2962929898       -2.1488162087        0.3741690705
 H          5.0742410201       -2.8844831886       -0.6527490399
 C          4.3298346796       -1.9820590492        1.1551860501
 H          4.4825317693       -1.0615736893        1.7241008204
 H          4.5773288696       -2.8187675193        1.8136702700
 C          2.8381834897       -2.0956327393        0.8148931198
 H          2.6704364699       -2.9666848592        0.1771489096
 H          2.2970968195       -2.2426382997        1.7542173597
 H          5.1122139003       -1.6143493081       -2.8631196296
 H          4.5712069800        0.0651447018       -2.7479146993
 H          3.0880295902       -2.4271293687       -1.8199109502
 H          2.6179804203       -1.2768157084       -3.0840703300
 O          1.8086271797        0.5484008711       -1.6638999597
 C          1.0893377994        1.4555348508       -0.8980766096
 O          0.6324985194        2.4121624709       -1.5509216095
 H         -1.4786695407        0.2277561500        0.5141720196
 C         -1.8943076608        1.1959810700        0.2759068298
 C         -1.2020216410        2.3394660000        0.6558302002
 C         -1.7490454712        3.5779969400        0.3532583804
 C         -2.9444457411        3.6584338600       -0.3414018698
 C         -3.6003373308        2.5177802000       -0.7659827202
 C         -3.0620294107        1.2722720400       -0.4607890004
 N         -3.6831222804        0.0825334000       -0.8711340108
 S         -2.7350063801       -1.2272680698       -1.3112804710
 O         -1.4870776900       -0.8279802994       -1.9189938907
 O         -3.6114197998       -2.0353826097       -2.1353043013
 C         -2.4427904202       -2.0890125001        0.2187436489
 C         -1.1589664302       -2.4691445399        0.5548625390
 C         -0.9517726703       -3.1560467902        1.7404145189
 C         -2.0273938704       -3.4500752206        2.5637732686
 C         -3.3120297304       -3.0656712207        2.2095706485
 C         -3.5257624503       -2.3800378305        1.0249065486
 H         -4.5075687603       -2.0659913005        0.7126662985
 H         -4.1451004005       -3.2963114710        2.8537783582
 H         -1.8600307405       -3.9805770808        3.4878024385
 H          0.0487983397       -3.4463776101        2.0176215190
 H         -0.3450445401       -2.2049706396       -0.1042289008
 H         -4.4712398103        0.2029404700       -1.4907221910
 H         -4.5128507407        2.5862211400       -1.3385619804
 H         -3.3584020612        4.6267982600       -0.5790290697
 H         -1.2277708014        4.4791311500        0.6316486207
 C          0.1235219289        2.1296868201        1.3427864204
 H         -0.0589092212        1.5350497298        2.2543850502
 C          0.7988890286        3.4135151001        1.7961144708
 C          2.2921579885        3.5072590903        1.8849662811
 C          1.5510663686        4.3080813004        0.8587639812
 H          1.4759656184        5.3762460504        1.0025121414
 H          1.6125544188        4.0089025707       -0.1753414489
 H          2.8652729387        2.6553260505        1.5481693310
 H          2.7271451883        4.0219027302        2.7285471013
 H          0.2418074483        3.9033069498        2.5890349208
 O          1.3081118091       -0.2518327000        2.2858493800
