  62
        -98.94413811
 C          2.0179856217       -0.8516950004       -0.1737232216
 C          2.4173810390        0.4388543747        0.2505120247
 C          3.7479146738        0.8720112780       -0.1977302804
 C          4.4832270971        0.0738127340       -0.9922910744
 C          5.8433481945        0.3890149020       -1.5531434125
 C          7.0013218869        0.0848394873       -0.5928165275
 C          7.1402482386        1.0503919864        0.5847937304
 H          8.1095048521        0.8538221156        1.0474138234
 H          7.1595848454        2.0752144557        0.2125863294
 C          6.0463377463        0.9085344776        1.6522868978
 H          5.5399715576       -0.0515582648        1.5293327081
 H          6.5041281122        0.9041867136        2.6440780808
 C          5.0007814901        2.0237947738        1.6413471703
 H          5.4760345846        2.9743086353        1.8939429260
 H          4.2575455440        1.8042871868        2.4120759513
 C          4.2640118098        2.1864498047        0.3052595901
 H          3.4041037730        2.8420523384        0.4640189026
 H          4.9211188969        2.6457639136       -0.4329763648
 H          6.8851384919       -0.9342781726       -0.2169231504
 H          7.9249286407        0.1208140777       -1.1751101903
 H          5.9629746837       -0.2317794179       -2.4437176123
 H          5.8826874848        1.4367497002       -1.8527447033
 O          4.0473236734       -1.1450328680       -1.4077071376
 C          2.8193163761       -1.6395987519       -1.0034599921
 O          2.5541398215       -2.7755181837       -1.4451876393
 H         -0.9613946951        0.5556092732        1.2167349682
 C         -1.1525977079        0.3410121102        0.1775494843
 C         -0.4127206998       -0.6326767521       -0.4741626027
 C         -0.6644455671       -0.8710603358       -1.8224540849
 C         -1.6308744040       -0.1516464904       -2.4999285475
 C         -2.3669630824        0.8217395461       -1.8466488072
 C         -2.1173818360        1.0708074358       -0.5042932394
 N         -2.8798993333        2.0467840166        0.1668233771
 S         -4.5417600462        1.8449502833        0.0950321163
 O         -5.0365525982        2.3549265055       -1.1591157563
 O         -5.0630781625        2.4798357595        1.2850218417
 C         -4.7729199554        0.0768109488        0.1658038881
 C         -4.4094192677       -0.5784846022        1.3257648400
 C         -4.5152068168       -1.9584192901        1.3777043886
 C         -4.9761044321       -2.6568138736        0.2720415432
 C         -5.3399986703       -1.9842388816       -0.8839002314
 C         -5.2352716970       -0.6035955681       -0.9417208810
 H         -5.5041218064       -0.0420969964       -1.8213493277
 H         -5.6992272048       -2.5302880175       -1.7412437312
 H         -5.0519998846       -3.7320213349        0.3129615741
 H         -4.2327801062       -2.4841298238        2.2757812558
 H         -4.0602498529       -0.0044571087        2.1689480535
 H         -2.5774510069        2.2061113427        1.1170168982
 H         -3.1267762061        1.3935412893       -2.3546130878
 H         -1.8145894210       -0.3494010952       -3.5449861441
 H         -0.0838008479       -1.6272064221       -2.3328299445
 C          0.6666012292       -1.4265736963        0.2200109769
 H          0.6465325693       -2.4466436232       -0.1860536530
 C          0.4967056270       -1.4965669328        1.7235516099
 C         -0.6380040420       -2.2935013330        2.2925508525
 C          0.7701120426       -2.7867662167        2.4330543642
 H          1.2358402548       -2.7498520834        3.4066182271
 H          1.0800550672       -3.6305490901        1.8340312087
 H         -1.2870654142       -2.7993941456        1.5939191639
 H         -1.1400524427       -1.9206844573        3.1723231409
 H          0.7817648812       -0.5831232755        2.2307562735
 O          1.7128838022        1.1961999039        0.9678314605
