  62
        -98.93976260
 C          2.7453701432        0.6124140405        0.1165644505
 C          2.8330111964       -0.4086010379        1.0924256666
 C          3.1841299619       -1.7455496396        0.5963227862
 C          3.4108067079       -1.9193858902       -0.7189000760
 C          3.7100500693       -3.2383180139       -1.3694742440
 C          2.4206313592       -3.9234010076       -1.8441991721
 C          1.3221849726       -3.9746650948       -0.7820946476
 H          0.9909316532       -2.9563266360       -0.5645901896
 H          0.4715680651       -4.5020947102       -1.2188977815
 C          1.7356407659       -4.6644946518        0.5256954157
 H          0.9348992500       -5.3400151785        0.8336834977
 H          2.6255544400       -5.2719801895        0.3581087340
 C          1.9883665365       -3.7116833211        1.6958210849
 H          1.1342572006       -3.0392474343        1.8132720886
 H          2.0617826481       -4.3072433437        2.6096716822
 C          3.2612508966       -2.8603582285        1.6015464418
 H          4.1203011496       -3.5031551958        1.4002483585
 H          3.4116249034       -2.3792612010        2.5725520292
 H          2.0359533668       -3.3754667152       -2.7074588008
 H          2.6659223405       -4.9370031742       -2.1659232271
 H          4.3541038276       -3.0583868993       -2.2316572952
 H          4.2355264783       -3.8768050855       -0.6621681229
 O          3.3349468897       -0.9108737354       -1.6238221182
 C          2.9752428829        0.3725655902       -1.2385814708
 O          2.9009238131        1.1872041748       -2.1766698090
 O          2.6139901227       -0.2137791462        2.3197535082
 C          2.3282653582        2.0059663130        0.5503711559
 C          0.9934602028        2.3509745364       -0.0662083798
 C          0.7303847100        3.5502275686       -0.7132160059
 C         -0.5215603241        3.7944545123       -1.2529881458
 C         -1.5337902464        2.8573244138       -1.1622985403
 C         -1.2857186907        1.6585456865       -0.5051839745
 C         -0.0340757705        1.4207911296        0.0405188626
 H          0.1571797305        0.4873228213        0.5571619685
 N         -2.3003096898        0.6771455480       -0.4174740425
 S         -3.7167615987        1.1110867871        0.3998323768
 O         -4.3382016148        2.2070000462       -0.2961967768
 O         -3.4334522831        1.3277352153        1.8034544496
 C         -4.6750020943       -0.3751249113        0.1887391876
 C         -5.4041444483       -0.5363797759       -0.9734638478
 C         -6.1194720462       -1.7088647215       -1.1574793140
 C         -6.0917070825       -2.6956009596       -0.1831323583
 C         -5.3559658121       -2.5186356900        0.9788947540
 C         -4.6382167692       -1.3482233642        1.1688380591
 H         -4.0612228438       -1.1649629164        2.0614306421
 H         -5.3378361101       -3.2860651243        1.7360017368
 H         -6.6486612537       -3.6077069782       -0.3286292771
 H         -6.6947785047       -1.8495923584       -2.0582565374
 H         -5.4009939640        0.2597112629       -1.6993378088
 H         -1.9453578980       -0.1660174324        0.0165646915
 H         -2.5112697182        3.0434753868       -1.5751705385
 H         -0.7098797082        4.7294597514       -1.7587623815
 H          1.5058111700        4.2933296126       -0.8006069185
 H          2.1878914432        1.9424014451        1.6404055398
 C          3.4172991646        3.0155714203        0.2595759161
 C          3.5414120168        4.2513740377        1.0983203127
 C          4.5525407898        3.1533004815        1.2278052458
 H          5.5459386333        3.3156877987        0.8376219018
 H          4.5273476376        2.5350413588        2.1134648271
 H          3.8436934915        5.1709101767        0.6203396572
 H          2.8315655408        4.3842072641        1.9009519740
 H          3.6496262739        3.0857575317       -0.7968265225
