  62
        -98.94690779
 C         -0.6247777345       -1.7456863285       -0.6921755364
 C         -1.7935601772       -1.9581443541        0.0828890850
 C         -2.9014436829       -1.0185862477       -0.1239162832
 C         -2.7613586017       -0.0294659375       -1.0240549321
 C         -3.8067437725        1.0021375948       -1.3372272413
 C         -3.6427103039        2.2651515440       -0.4813732526
 C         -3.4452034554        1.9859143614        1.0087328039
 H         -2.4863492062        1.4826562021        1.1627989024
 H         -3.3720296447        2.9532086900        1.5126294383
 C         -4.5702959818        1.1627602905        1.6521135279
 H         -5.4638662826        1.2064169512        1.0275464966
 H         -4.8232271967        1.6150754366        2.6135158444
 C         -4.2169194427       -0.2996415177        1.9302702102
 H         -3.2583481480       -0.3476827375        2.4544520773
 H         -4.9782644253       -0.7112767590        2.5986854292
 C         -4.1410058202       -1.2144443340        0.7011508379
 H         -4.1052415422       -2.2486932622        1.0559926137
 H         -5.0392351248       -1.0901229755        0.0925085168
 H         -4.5258964398        2.8923454556       -0.6199591947
 H         -2.7748228818        2.8231514881       -0.8405864816
 H         -3.7141358505        1.2736058426       -2.3904160367
 H         -4.7909343106        0.5678714113       -1.1708415783
 O         -1.6289780649        0.1504225798       -1.7454001757
 C         -0.5200686754       -0.6705510542       -1.5753078802
 O          0.4553391421       -0.3274101290       -2.2706282594
 H          1.3717858619       -0.1515721855       -0.0452195034
 C          1.7281039404       -0.8166253252        0.7247207216
 C          1.4146714682       -2.1657111550        0.6710036873
 C          1.9106265223       -3.0040455573        1.6628514961
 C          2.6841344533       -2.4954425642        2.6910208123
 C          2.9471408118       -1.1392574435        2.7704937237
 C          2.4556077274       -0.2945568450        1.7827356085
 N          2.6671212721        1.0916681193        1.8260055238
 S          1.4073754149        2.0983498249        1.3605973646
 O          1.6661559817        3.3420674561        2.0601108401
 O          0.1192160448        1.4958202485        1.6166459263
 C          1.6457108858        2.3781417422       -0.3786764678
 C          0.5366534462        2.6381004398       -1.1561909191
 C          0.7076185213        2.9069550553       -2.5036903628
 C          1.9821546392        2.9141261734       -3.0461308332
 C          3.0874557868        2.6552986039       -2.2506844477
 C          2.9227664342        2.3874474205       -0.9016323570
 H          3.7585086736        2.1725738836       -0.2564694481
 H          4.0769097192        2.6548845213       -2.6794100556
 H          2.1125857614        3.1146786717       -4.0979689222
 H         -0.1540737269        3.0938751076       -3.1243914259
 H         -0.4383730144        2.6004355442       -0.6955164003
 H          3.1302138890        1.4306344776        2.6570070936
 H          3.5181599077       -0.7349837461        3.5924410025
 H          3.0641204283       -3.1567889469        3.4547858226
 H          1.6699687690       -4.0562321293        1.6368518480
 C          0.5317342858       -2.6958365428       -0.4354516630
 H          0.0718686134       -3.6257067463       -0.0717018951
 C          1.3616236754       -3.0187965056       -1.6621694301
 C          2.0886882609       -4.3267285614       -1.7347532593
 C          0.8943581831       -4.0835336943       -2.6068285154
 H          1.0437323148       -3.9317434185       -3.6649212029
 H         -0.0261199630       -4.5952683689       -2.3656287119
 H          1.9778271858       -5.0119648380       -0.9083525433
 H          3.0650565249       -4.3456413972       -2.1935318052
 H          1.8412648976       -2.1494075305       -2.0920894192
 O         -1.9078943962       -2.9090078305        0.9044915198
