  62
        -98.94364361
 C         -1.2702048796       -0.8608288397        0.2117420497
 C         -1.7250055394        0.2806226500        0.9190647503
 C         -2.7756498892        1.0735700406        0.2688879407
 C         -3.1741336293        0.7400084913       -0.9717312395
 C         -4.2683979392        1.4264792719       -1.7355539791
 C         -5.6284270993        0.7633805920       -1.4751315094
 C         -5.9376696293        0.5481995513        0.0064538005
 H         -6.9329421094        0.1031693715        0.0694143303
 H         -5.2334852995       -0.1802616290        0.4148910401
 C         -5.8935416391        1.8258451809        0.8562235511
 H         -6.7657894890        1.8400206907        1.5130598311
 H         -5.9597176889        2.7023598712        0.2106843516
 C         -4.6594541590        1.9493585702        1.7518560612
 H         -4.8318182688        2.7662559299        2.4575717716
 H         -4.5373806292        1.0331773499        2.3351681107
 C         -3.3375195790        2.2411024403        1.0301040013
 H         -3.4575850588        3.1059037906        0.3737713817
 H         -2.5901331089        2.4907141997        1.7892401314
 H         -5.6393591295       -0.2092510877       -1.9725533599
 H         -6.4058426592        1.3836532724       -1.9248576291
 H         -4.3012535990        2.4757976217       -1.4479665386
 H         -4.0374293892        1.3597317824       -2.8002091591
 O         -2.6446201295       -0.3011902485       -1.6612165300
 C         -1.6812221497       -1.1277041390       -1.0949807104
 O         -1.2880246099       -2.0330710987       -1.8535531509
 H          1.0081659906        0.2085483002       -0.4720330498
 C          1.4958352004       -0.7396663398       -0.6400818003
 C          0.9762436102       -1.8867675600       -0.0543226709
 C          1.5892414899       -3.1028300700       -0.3244660615
 C          2.6889186499       -3.1580023998       -1.1640436915
 C          3.2148914301       -2.0102550996       -1.7278424310
 C          2.6059587504       -0.7879456097       -1.4653049603
 N          3.1014884806        0.4058138505       -2.0107278197
 S          3.0043113609        1.8161805401       -1.1206544490
 O          1.6622498210        2.3431946604       -1.1514935487
 O          4.0264549011        2.6680490002       -1.6913391586
 C          3.4675340908        1.3446833292        0.5372356007
 C          2.5429642509        1.3590052988        1.5611086108
 C          2.9329923308        0.9331277381        2.8214695605
 C          4.2332766907        0.5045959977        3.0362366003
 C          5.1546381607        0.5068138581        1.9996513603
 C          4.7696322308        0.9276641588        0.7378205305
 H          5.4593673008        0.9526693191       -0.0899952495
 H          6.1671484406        0.1786616678        2.1705016501
 H          4.5291575907        0.1696367972        4.0178072901
 H          2.2104331008        0.9331869078        3.6222225905
 H          1.5348692609        1.6920255491        1.3675703009
 H          3.9756736706        0.3227826106       -2.5077231398
 H          4.0762785901       -2.0566814995       -2.3761475310
 H          3.1490160197       -4.1110176598       -1.3764884220
 H          1.1957272997       -4.0104524502        0.1022853680
 C         -0.2028566598       -1.7148872103        0.8704284692
 H          0.1410797804       -1.0994894708        1.7201935895
 C         -0.7116114800       -3.0195113705        1.4656963886
 C         -2.1613155601       -3.2090804503        1.7960116385
 C         -1.5385018002       -3.9924303599        0.6815707881
 H         -1.3679743005       -5.0483379100        0.8333940076
 H         -1.7855612602       -3.7294847993       -0.3345824318
 H         -2.4174139502       -3.7227049308        2.7106304482
 H         -2.8421460099       -2.4104373601        1.5378598189
 H         -0.0050083801       -3.4445485210        2.1717538284
 O         -1.2679997093        0.6212528193        2.0436129004
