  62
        -98.93457111
 C          2.3889031495        0.9767981397       -0.1052027118
 C          3.6801192895        1.1273869502        0.4478208380
 C          4.7598770495        0.3134032198       -0.1434135315
 C          4.4584558596       -0.5219660110       -1.1552215808
 C          5.3728261396       -1.4741363914       -1.8794803902
 C          5.6936426897       -2.7317216708       -1.0557637093
 C          6.0302077898       -2.4721890497        0.4102999105
 H          6.1310193899       -3.4423952293        0.9040542312
 H          5.1934286698       -1.9549326494        0.8834435202
 C          7.3173286997       -1.6877723894        0.6538865499
 H          8.1554596997       -2.2276586297        0.2077472502
 H          7.4790017598       -1.6585286486        1.7345064598
 C          7.3323619096       -0.2490505098        0.1331208088
 H          7.4955456695       -0.2215729106       -0.9408594012
 H          8.1899844496        0.2531351806        0.5902347684
 C          6.1010786696        0.5732381404        0.4998045983
 H          6.3181150395        1.6307566202        0.3063885475
 H          5.9350941196        0.5081333011        1.5812123383
 H          6.5227421297       -3.2551680511       -1.5349105190
 H          4.8189283198       -3.3862894909       -1.0850953988
 H          6.2838236895       -0.9633330116       -2.1769141406
 H          4.8498801396       -1.7791428621       -2.7886063399
 O          3.1929346095       -0.6391287514       -1.6525377807
 C          2.1337748195        0.0966530989       -1.1553634412
 O          1.0444826795       -0.1137229816       -1.7239270109
 O          3.9286115795        1.9078390909        1.4067612674
 C          1.2426925695        1.7905161000        0.4672868677
 C          0.1743210696        0.8609761703        0.9874223684
 C          0.5289708197       -0.0971720890        1.9341569991
 C         -0.4078759802       -0.9839752487        2.4263683398
 C         -1.7223251402       -0.9337706291        1.9937681498
 C         -2.0873786704        0.0157582502        1.0504568291
 C         -1.1409320305        0.9081300399        0.5573159584
 H         -1.4391198405        1.6375007193       -0.1796295621
 N         -3.4267275504        0.1149819798        0.6218796891
 S         -4.2751538803       -1.2803911206        0.1941607702
 O         -4.4672881102       -2.0871081997        1.3726376308
 O         -3.6454172903       -1.9383713614       -0.9301895894
 C         -5.8271380504       -0.5559894210       -0.2981698703
 C         -6.7221271604       -0.1855456204        0.6874738795
 C         -7.9200925504        0.4038871893        0.3169141692
 C         -8.2012333705        0.6127733583       -1.0252350810
 C         -7.2935543505        0.2347153876       -2.0030110308
 C         -6.0926431405       -0.3543534020       -1.6389376304
 H         -5.3610615905       -0.6711887925       -2.3652932202
 H         -7.5157606606        0.3959447268       -3.0456533809
 H         -9.1346699806        1.0709594080       -1.3117110513
 H         -8.6295050304        0.6976343898        1.0736416290
 H         -6.4639851003       -0.3749442996        1.7160663696
 H         -3.5217226205        0.7939600792       -0.1226153014
 H         -2.4580487002       -1.6279429589        2.3645454803
 H         -0.1160774201       -1.7246834081        3.1561609703
 H          1.5556772397       -0.1408223787        2.2721810790
 H          1.6692682195        2.3332343607        1.3235564972
 C          0.7477576994        2.7969309592       -0.5494050831
 C          0.0481895493        4.0424807395       -0.0954505839
 C          1.4375547293        4.1230964992       -0.6506730841
 H          1.5795477292        4.5561406585       -1.6294780844
 H          2.2537504093        4.3101151098        0.0315554658
 H         -0.7642628808        4.4262095090       -0.6939672742
 H         -0.0819422207        4.1812051703        0.9670281060
 H          0.4238045493        2.3314936585       -1.4739677227
