  62
        -98.93909462
 C         -2.4725209910       -1.0191620531        0.3753143234
 C         -2.7115315903        0.1652357332        1.1220798495
 C         -4.0175744530        0.8042394323        0.9338042774
 C         -4.9193147071        0.2420292163        0.1091122268
 C         -6.3075829607        0.7511757683       -0.1687918709
 C         -6.3686580856        1.8426445232       -1.2460333965
 C         -5.8302730824        3.2086047805       -0.8187596194
 H         -6.1328366122        3.9258504316       -1.5842253571
 H         -6.3053163839        3.5094136709        0.1154714383
 C         -4.3040046879        3.2676292279       -0.6643794362
 H         -3.8516089565        2.4126986687       -1.1725390675
 H         -3.9225686279        4.1672876793       -1.1525366368
 C         -3.8128589386        3.2965984536        0.7831683081
 H         -2.7195687708        3.2982790202        0.7743297206
 H         -4.1470350570        4.2177067090        1.2659697069
 C         -4.2764564506        2.1052340887        1.6315790046
 H         -5.3348629931        2.2035777032        1.8723710056
 H         -3.7032013263        2.1028196586        2.5620211209
 H         -5.8231058385        1.4952869086       -2.1263460836
 H         -7.4168752496        1.9617466140       -1.5294503406
 H         -6.7516569407        1.1241091239        0.7545532758
 H         -6.8890316933       -0.1064414757       -0.5136946866
 O         -4.6647576893       -0.9051405651       -0.5699263611
 C         -3.4396174486       -1.5518160577       -0.4779593175
 O         -3.3687785006       -2.5707491869       -1.1926608620
 O         -1.8718724181        0.6603933517        1.9220354154
 C         -1.1148094079       -1.6742470665        0.5588317344
 C         -0.1636769395       -1.3301601233       -0.5631942999
 C         -0.3829311581       -1.7649165317       -1.8666458328
 C          0.5252756983       -1.4637802022       -2.8648043992
 C          1.6740980607       -0.7455234044       -2.5828857066
 C          1.8969757680       -0.2981802107       -1.2860914452
 C          0.9741453247       -0.5851989072       -0.2897116046
 H          1.1560378095       -0.2221803050        0.7116938033
 N          3.0411006190        0.4515457286       -0.9702386768
 S          3.7526586779        0.2152288177        0.5435503579
 O          3.7601606025       -1.1927970770        0.8702852095
 O          3.1189485431        1.0897460834        1.4981030816
 C          5.4121583028        0.7813531668        0.2181968307
 C          5.6783487454        2.1364109910        0.2764276703
 C          6.9610630818        2.5793274829       -0.0047446200
 C          7.9502526841        1.6657689142       -0.3378441099
 C          7.6685725055        0.3088498469       -0.3900475627
 C          6.3875213587       -0.1409455675       -0.1113229196
 H          6.1243765793       -1.1863660680       -0.1300676433
 H          8.4405597442       -0.3990304313       -0.6454155779
 H          8.9479267738        2.0133965027       -0.5546472792
 H          7.1845366972        3.6331084457        0.0382514665
 H          4.8804576299        2.8071085664        0.5500371440
 H          3.7260378245        0.4586104678       -1.7136734747
 H          2.3889854847       -0.5261299094       -3.3614530152
 H          0.3434303646       -1.8054901948       -3.8727071905
 H         -1.2742631312       -2.3314489626       -2.0875299922
 H         -0.7062327081       -1.2299880320        1.4775749286
 C         -1.1811792453       -3.1781248307        0.7470432312
 C          0.0138008644       -3.8820289307        1.3144833116
 C         -1.2345547997       -3.7441697261        2.1324299844
 H         -1.8371249764       -4.6229468156        2.3066782797
 H         -1.2284637782       -3.0473319126        2.9582209662
 H          0.2688072176       -4.8564613635        0.9269358476
 H          0.8702232442       -3.2784513299        1.5797355350
 H         -1.7481941925       -3.6854123794       -0.0223593307
