  62
        -98.94418354
 C         -1.5990243319       -1.4576857478        0.3821128163
 C         -1.7541794178       -0.2525225237        1.1176881010
 C         -3.0199159588        0.4692803050        0.9363601543
 C         -3.9649543003       -0.0577648022        0.1374676454
 C         -5.2927031559        0.5758565346       -0.1595605053
 C         -5.2240850908        1.4589094291       -1.4131365095
 C         -4.0486657250        2.4360543279       -1.4157718064
 H         -4.1223821577        3.0300263047       -2.3292284599
 H         -3.1159659324        1.8701420152       -1.4743673054
 C         -3.9980819176        3.3713058156       -0.1995878005
 H         -4.9722694692        3.3970303112        0.2899096660
 H         -3.7840553651        4.3843165462       -0.5464967652
 C         -2.9207994928        3.0137679118        0.8261246557
 H         -2.8111095587        3.8580028884        1.5121309889
 H         -1.9665260878        2.8744671885        0.3131303927
 C         -3.1950025384        1.7659655381        1.6755877028
 H         -4.1934001296        1.8288929753        2.1134805274
 H         -2.4658150899        1.7457208983        2.4909539253
 H         -6.1612974605        2.0123709361       -1.4962188673
 H         -5.1334541637        0.8113492182       -2.2882926013
 H         -5.6058041615        1.1677962934        0.6984275516
 H         -6.0220540861       -0.2189273790       -0.3255285136
 O         -3.7950827769       -1.2254198827       -0.5287675056
 C         -2.6081619614       -1.9421132226       -0.4509644608
 O         -2.6067006614       -2.9666395239       -1.1613467022
 O         -0.8736333100        0.1942780328        1.8997670116
 C         -0.2805816395       -2.1903566096        0.5613274439
 C          0.6979110261       -1.8605055964       -0.5411523555
 C          0.4073587081       -2.1285642854       -1.8749484523
 C          1.3283182097       -1.8317310413       -2.8625890623
 C          2.5479788890       -1.2604520185       -2.5439786374
 C          2.8501741272       -0.9927092311       -1.2138531846
 C          1.9243438471       -1.2949751718       -0.2238991102
 H          2.1746612686       -1.0910268483        0.8054907960
 N          4.0907938850       -0.4442195958       -0.8646128169
 S          4.2612888095        0.6008497363        0.4262134239
 O          5.5457201317        1.2272837834        0.1996378367
 O          4.1195165431       -0.1170299631        1.6675304168
 C          2.9649578706        1.8102874639        0.2429081857
 C          1.9278158229        1.8634341422        1.1495057184
 C          0.9325584184        2.8117540796        0.9755111073
 C          0.9877642461        3.6818600526       -0.1012121165
 C          2.0394268709        3.6183229717       -1.0039838522
 C          3.0386222183        2.6754304935       -0.8323916621
 H          3.8794854538        2.6086897729       -1.5035508968
 H          2.0807999444        4.3001254215       -1.8382444946
 H          0.2088986912        4.4165511131       -0.2354599987
 H          0.1154335911        2.8436408345        1.6778438770
 H          1.8971635433        1.1686615292        1.9727142696
 H          4.6770268621       -0.1823833910       -1.6428856749
 H          3.2652716438       -1.0311624366       -3.3170558014
 H          1.0928559541       -2.0453471786       -3.8943052410
 H         -0.5447011117       -2.5696952279       -2.1271102767
 H          0.1391026512       -1.8005074344        1.4991208681
 C         -0.4266564949       -3.6937334794        0.6975787529
 C          0.6725763182       -4.4691655006        1.3569504357
 C         -0.6425030172       -4.2911041223        2.0538530328
 H         -1.3011070400       -5.1420184237        2.1425618480
 H         -0.6850376853       -3.6171102499        2.8972945846
 H          0.9199377292       -5.4445773873        0.9670548687
 H          1.5232326131       -3.9163522442        1.7277061051
 H         -0.9390885326       -4.1551434050       -0.1362140778
