  62
        -98.94346530
 C          1.0227804955        0.8089121185        0.9274112268
 C          1.5320891720        0.7884215366       -0.3954112873
 C          2.2027737560       -0.4555460414       -0.8050864804
 C          2.2136130667       -1.5094869945        0.0287609943
 C          2.8853582538       -2.8223858603       -0.2503990864
 C          4.3339632775       -2.8275060192        0.2580858358
 C          5.1432175001       -1.6027015139       -0.1678547537
 H          4.7222310424       -0.7140224353        0.3077482772
 H          6.1548023101       -1.7289420086        0.2237330185
 C          5.2065905711       -1.3803133456       -1.6853193878
 H          4.9343791841       -2.2988165467       -2.2066073612
 H          6.2357836915       -1.1425854312       -1.9623304190
 C          4.3321711615       -0.2329167492       -2.1949923564
 H          4.5368556034        0.6696633705       -1.6134638097
 H          4.6129118356       -0.0249661035       -3.2309482291
 C          2.8192683941       -0.4868775173       -2.1743436350
 H          2.3334467128        0.3163130676       -2.7368039406
 H          2.5934099061       -1.4309809503       -2.6754485826
 H          4.8232221107       -3.7332286343       -0.1047194148
 H          4.3167758493       -2.8637639898        1.3497407685
 H          2.3278082770       -3.6104210046        0.2592765592
 H          2.8615621016       -3.0130933044       -1.3219474087
 O          1.6369772630       -1.4834611585        1.2578861224
 C          1.0319734508       -0.3301896069        1.7347952303
 O          0.5357995531       -0.4502354881        2.8726089612
 H         -1.5297062146        0.4342420987        0.4170840066
 C         -1.6279367091        1.4309311196        0.0122465777
 C         -0.7663257169        2.4254845423        0.4585551753
 C         -0.9035766742        3.7049812069       -0.0600320971
 C         -1.8655392386        3.9642914506       -1.0219874829
 C         -2.6892126125        2.9600695428       -1.4965938598
 C         -2.5619451502        1.6759847328       -0.9778322991
 N         -3.3756690422        0.6210496153       -1.4194265044
 S         -2.7371197903       -0.9234947136       -1.5247994124
 O         -1.3464947217       -0.9183181379       -1.9143010728
 O         -3.6418991998       -1.6179687199       -2.4184907740
 C         -2.9240340936       -1.5932421916        0.1137390700
 C         -4.1498416603       -1.4861161353        0.7400954126
 C         -4.2957625514       -2.0100606241        2.0144722376
 C         -3.2212904138       -2.6280253220        2.6366365490
 C         -1.9988496315       -2.7343856682        1.9915910337
 C         -1.8487132105       -2.2149922303        0.7161318103
 H         -0.9094163792       -2.2612587547        0.1853005418
 H         -1.1563031822       -3.1993854445        2.4780867582
 H         -3.3326139851       -3.0277038233        3.6321662177
 H         -5.2438012553       -1.9308481948        2.5216477351
 H         -4.9591607888       -0.9960187637        0.2253616001
 H         -3.9711644015        0.8382695930       -2.2053206348
 H         -3.4172539668        3.1613619162       -2.2677031779
 H         -1.9605523856        4.9613638684       -1.4249559049
 H         -0.2422273805        4.4914793530        0.2645481764
 C          0.2713269752        2.0132542496        1.4738821723
 H         -0.2643830184        1.6286899665        2.3580311250
 C          1.1470991796        3.1548657070        1.9649006488
 C          2.5561721372        2.9057014734        2.4120497821
 C          2.2937363802        3.6967038964        1.1676063392
 H          2.4745967747        4.7616208852        1.1929214378
 H          2.4951029938        3.2414664964        0.2114571601
 H          2.9411318267        1.9013073757        2.3073157672
 H          2.9172581933        3.4230561266        3.2882720883
 H          0.5808130851        3.8736629210        2.5493131087
 O          1.4469542508        1.7531723540       -1.1981368514
