  62
        -98.94488184
 C          2.2114264706        1.0095749428        0.5014154147
 C          2.2795609543        0.1192621342       -0.5977299728
 C          3.0610039267       -1.1069898058       -0.3790472306
 C          3.6226966396       -1.3268851595        0.8237899523
 C          4.4896888877       -2.5036637521        1.1640258578
 C          5.9701575049       -2.1991828741        0.8945932602
 C          6.2370358570       -1.6011788150       -0.4866724173
 H          5.7743432523       -0.6132824345       -0.5429421511
 H          7.3158630453       -1.4568303004       -0.5751168636
 C          5.7385763370       -2.4599670065       -1.6573428092
 H          6.5178765505       -2.4974703732       -2.4213058929
 H          5.5661293199       -3.4827024960       -1.3201461260
 C          4.4739713635       -1.9319705453       -2.3374891477
 H          4.3338853324       -2.4826870933       -3.2714000919
 H          4.6086512889       -0.8786641129       -2.5957494992
 C          3.1768865344       -2.0666127355       -1.5295992437
 H          3.0618505705       -3.0968918651       -1.1855532297
 H          2.3407820583       -1.8348327378       -2.1966259085
 H          6.5380547980       -3.1242283206        1.0089206632
 H          6.3197423487       -1.4898469968        1.6482213269
 H          4.3612349066       -2.7308433291        2.2237730128
 H          4.1714235024       -3.3636869892        0.5777948566
 O          3.4988884397       -0.4675329385        1.8680042220
 C          2.7954950551        0.7194279988        1.7333574703
 O          2.7540260213        1.4138001982        2.7698272214
 O          1.7191895260        0.3363997256       -1.7033668075
 C          1.4402799794        2.3108500674        0.3708126535
 C          0.0042137200        2.0241149829        0.0023311646
 C         -0.6819184668        2.7057690368       -0.9937746989
 C         -1.9951678784        2.3809457971       -1.2877359950
 C         -2.6531740735        1.3814055729       -0.5954907317
 C         -1.9782008814        0.6970073200        0.4069885188
 C         -0.6649885158        1.0272712979        0.7018124909
 H         -0.1393448621        0.4896657526        1.4827291430
 N         -2.6414422402       -0.3133658144        1.1277206363
 S         -3.3986688013       -1.5331215680        0.2530882172
 O         -3.4288023212       -2.6714991646        1.1463762786
 O         -2.7711388425       -1.7391527012       -1.0313454768
 C         -5.0584793761       -0.9257616485        0.0359967780
 C         -5.7887189757       -0.6119049688        1.1655832237
 C         -7.0832581687       -0.1410379050        1.0157834384
 C         -7.6234854664        0.0044152072       -0.2534526413
 C         -6.8787539184       -0.3188915811       -1.3773456658
 C         -5.5825613530       -0.7896032250       -1.2344863306
 H         -4.9636904948       -1.0491704507       -2.0787873227
 H         -7.3004504329       -0.2060001715       -2.3631679494
 H         -8.6312328932        0.3714449616       -0.3673573750
 H         -7.6655610565        0.1108658053        1.8874045934
 H         -5.3326908037       -0.7440721224        2.1325029522
 H         -2.0790780429       -0.7136047937        1.8651861140
 H         -3.6731185140        1.1211185037       -0.8263886557
 H         -2.5134704830        2.9140211908       -2.0701033835
 H         -0.1854727574        3.4845614108       -1.5487514586
 H          1.4500051681        2.7721429331        1.3694686474
 C          2.1415624049        3.2368993884       -0.6011567504
 C          2.0296695807        4.7228473519       -0.4443666311
 C          3.3182014330        4.0300628018       -0.1205130086
 H          4.1585664714        4.1613770467       -0.7855669677
 H          3.5969751058        3.9214323371        0.9178306983
 H          1.9884003930        5.3336287939       -1.3335490792
 H          1.4360046655        5.0956196828        0.3764611395
 H          2.1896981980        2.8268019728       -1.6034918033
