  62
        -98.94250390
 C         -2.7705745515       -0.7713797309        0.4428477996
 C         -2.6626831518       -0.0483896462       -0.7698570764
 C         -3.0553380105        1.3669922032       -0.7078320923
 C         -3.4886327840        1.8818399647        0.4574172377
 C         -3.8762550755        3.3158679188        0.6710510596
 C         -2.6788030572        4.1524702523        1.1426204607
 C         -1.4191350352        3.9628891294        0.2969035056
 H         -0.6505956932        4.6258134784        0.7004751847
 H         -1.0489079501        2.9417251056        0.4190050860
 C         -1.6071526611        4.2525366461       -1.1986026661
 H         -0.7595170164        4.8462732279       -1.5469889514
 H         -2.5081337770        4.8481771494       -1.3511949400
 C         -1.6665956271        3.0059600673       -2.0837680054
 H         -0.8091385036        2.3619043752       -1.8655894188
 H         -1.5743284962        3.3247333790       -3.1256906756
 C         -2.9477457467        2.1687775430       -1.9738942607
 H         -3.8196169210        2.8142013156       -2.0991456978
 H         -2.9374479688        1.4397953101       -2.7895769723
 H         -2.9677827975        5.2048678314        1.1330682846
 H         -2.4442013328        3.8732621358        2.1723730012
 H         -4.2721386594        3.7208065167       -0.2580423799
 H         -4.6551353011        3.3508493194        1.4346080750
 O         -3.5786801560        1.1550132095        1.6008081928
 C         -3.2052805784       -0.1795468676        1.6276377950
 O         -3.2994263691       -0.7187726383        2.7493228455
 O         -2.2605631724       -0.5571643868       -1.8487821928
 C         -2.3669973776       -2.2347217601        0.4854283848
 C         -0.9372660802       -2.3789612112        0.0220983859
 C         -0.5197549351       -3.3284291163       -0.9006818577
 C          0.8028705780       -3.3761979235       -1.3064958209
 C          1.7363371174       -2.4920278519       -0.7982153304
 C          1.3330305478       -1.5474193077        0.1359517145
 C          0.0088489249       -1.5050135056        0.5427588044
 H         -0.3048168774       -0.7622869840        1.2680334569
 N          2.2758133535       -0.6475082054        0.6790055067
 S          3.0384913856        0.4523531766       -0.3496842783
 O          2.5482226107        1.7797333452       -0.0419933058
 O          2.9150604816        0.0166837894       -1.7179310395
 C          4.7401297494        0.3207689995        0.1681019400
 C          5.3313824377       -0.9273531371        0.1651175827
 C          6.6552634258       -1.0442963558        0.5561817103
 C          7.3641597444        0.0839723905        0.9414803637
 C          6.7567408732        1.3298553222        0.9415795568
 C          5.4315898936        1.4523065957        0.5521682533
 H          4.9180778329        2.4000532049        0.5403812386
 H          7.3082861287        2.2058173971        1.2431489724
 H          8.3950377705       -0.0093850430        1.2445767112
 H          7.1286722031       -2.0129336971        0.5602604393
 H          4.7477029582       -1.7813147484       -0.1360107708
 H          1.8963806966       -0.1261036884        1.4576163817
 H          2.7583264911       -2.5080032953       -1.1387270486
 H          1.1100779013       -4.1112190863       -2.0349340660
 H         -1.2330053066       -4.0212909803       -1.3158973551
 H         -2.4190953589       -2.5362208261        1.5420172608
 C         -3.3487707451       -3.0701809880       -0.3092972515
 C         -3.5991220310       -4.4999557731        0.0626500765
 C         -4.6456815261       -3.4616250273        0.3304000482
 H         -5.5401253748       -3.4592624329       -0.2741604292
 H         -4.8082581938       -3.1459129673        1.3508690967
 H         -3.7792058476       -5.2140204119       -0.7267226771
 H         -3.0560954334       -4.8998093672        0.9055238814
 H         -3.3693998273       -2.7994869118       -1.3588150103
