  62
        -98.93884801
 C          1.8903979844        0.8291059550       -0.5471450948
 C          2.6485259810        0.8214577759        0.6538732549
 C          3.7053703423       -0.1898930823        0.7639477558
 C          3.8774067287       -1.0628425135       -0.2447778112
 C          4.9363410378       -2.1257157996       -0.2893900004
 C          6.2160386811       -1.6089540308       -0.9614859222
 C          6.6979748830       -0.2633488439       -0.4192768757
 H          7.6216989751       -0.0130265298       -0.9454246504
 H          5.9645197925        0.5052651528       -0.6733205141
 C          6.9494108386       -0.2421903996        1.0949355050
 H          7.0428312575       -1.2623190181        1.4689935415
 H          7.8995964185        0.2613311244        1.2849164607
 C          5.8829879038        0.4980791484        1.9043491498
 H          5.7180828312        1.4886836290        1.4734053545
 H          6.2647436077        0.6414910338        2.9186520874
 C          4.5259620987       -0.2070594774        2.0227902285
 H          3.9351463439        0.3299246869        2.7707036950
 H          4.6726531339       -1.2314116711        2.3719250979
 H          6.0237232261       -1.4984786927       -2.0312377524
 H          6.9997527315       -2.3577528171       -0.8327107147
 H          5.1532574003       -2.4559160162        0.7248358627
 H          4.5505551744       -2.9709328080       -0.8621587429
 O          3.1248328490       -1.0408889155       -1.3715013840
 C          2.1153162171       -0.0973599622       -1.5655622449
 O          1.5472839288       -0.2113405777       -2.6656172863
 O          2.4447404810        1.6384751687        1.5917075752
 C          0.7883311327        1.8746944215       -0.5983137308
 C         -0.3097750202        1.4925140146        0.3638661654
 C         -0.8583812436        2.4362503039        1.2252955617
 C         -1.8530309251        2.0847351686        2.1195754254
 C         -2.3339233649        0.7883462979        2.1548273741
 C         -1.7949690312       -0.1619398707        1.2959285277
 C         -0.7830820651        0.1886993310        0.4139181397
 H         -0.3655493644       -0.5659358213       -0.2373867641
 N         -2.2744763132       -1.4915099516        1.2885913551
 S         -3.1610209736       -1.9332494809       -0.0635604176
 O         -3.6134451820       -3.2823708850        0.1923244190
 O         -2.3720759299       -1.7219424449       -1.2479092644
 C         -4.5543901285       -0.8174244140       -0.0388687094
 C         -5.7323451757       -1.2274488178        0.5548488899
 C         -6.7861574838       -0.3319509964        0.6427725015
 C         -6.6402881708        0.9555177820        0.1485584489
 C         -5.4501225061        1.3530355505       -0.4413550777
 C         -4.3938662808        0.4606243644       -0.5365818111
 H         -3.4567982583        0.7329315817       -0.9947690170
 H         -5.3361639632        2.3533238656       -0.8267448147
 H         -7.4590311836        1.6537443354        0.2215089843
 H         -7.7138451400       -0.6395721652        1.0977760285
 H         -5.8005376068       -2.2388171726        0.9220336705
 H         -2.8011500932       -1.7319116239        2.1178892698
 H         -3.1127375478        0.5073990360        2.8479579759
 H         -2.2600789655        2.8252854419        2.7904514876
 H         -0.4808558181        3.4477378457        1.2046325669
 H          1.2428030412        2.8013275000       -0.2085879192
 C          0.2569011438        2.1906981417       -1.9860647908
 C         -0.9218471753        1.4966045387       -2.5914241077
 C         -1.0427995558        2.9232064427       -2.1519716656
 H         -1.1074592275        3.6888048164       -2.9101065542
 H         -1.6183134244        3.1288164601       -1.2618138313
 H         -0.8770859209        1.2745881162       -3.6468046955
 H         -1.4060016781        0.7170606164       -2.0228476443
 H          1.0567772796        2.4503059455       -2.6715016593
