  62
        -98.93606846
 C         -1.6845088672       -0.1573582385        0.3416789790
 C         -2.7976289949       -0.8763719502        0.8437484670
 C         -4.1260451129       -0.2638054592        0.6690471892
 C         -4.2208195750        0.9436459197        0.0826740730
 C         -5.4197018005        1.8262471444       -0.1958772978
 C         -6.8383045145        1.2726604340       -0.0899908853
 C         -7.1994377088        0.2320900489       -1.1497252675
 H         -8.1894398770       -0.1651663838       -0.9153658639
 H         -7.2629800507        0.7322847149       -2.1194823141
 C         -6.2195880387       -0.9296012717       -1.2951040136
 H         -5.2489754300       -0.5512024822       -1.6229162837
 H         -6.5927044958       -1.5843156261       -2.0874464196
 C         -6.0247357067       -1.7811796895       -0.0421323257
 H         -5.4329956000       -2.6553796991       -0.3271461217
 H         -6.9934158389       -2.1361644838        0.3147253144
 C         -5.2961676375       -1.0885532111        1.1224333820
 H         -5.9813425686       -0.4896193104        1.7174070851
 H         -4.8876853016       -1.8655485111        1.7751626114
 H         -7.5139496779        2.1225920993       -0.2194494451
 H         -7.0155874916        0.8798022846        0.9068052853
 H         -5.2659818695        2.2276548160       -1.2027816961
 H         -5.3270768442        2.6758094342        0.4898265674
 O         -3.1148820746        1.6240858904       -0.3372457703
 C         -1.8306604019        1.1059890572       -0.2298025063
 O         -0.9483342328        1.8664021803       -0.6682136117
 O         -2.6868068605       -1.9871268581        1.4274837191
 C         -0.3145072946       -0.7924583826        0.4962960078
 C          0.6819703131        0.2098821359        1.0178741597
 C          0.5339565019        0.6910031037        2.3165660736
 C          1.4175943464        1.6190219350        2.8312195927
 C          2.4822504821        2.0705109781        2.0704256003
 C          2.6376028023        1.5979505590        0.7734589710
 C          1.7404233184        0.6740028438        0.2542622815
 H          1.8556639834        0.3619671243       -0.7694187021
 N          3.7049301679        2.0332942584       -0.0225219927
 S          4.4171598354        0.9986318821       -1.1176099372
 O          5.7593736414        1.5177004223       -1.2796367050
 O          3.6362335798        0.9048097742       -2.3250406416
 C          4.4757456717       -0.5902019343       -0.3049689271
 C          5.0619431865       -0.6737600689        0.9425904943
 C          5.1039097971       -1.9014066703        1.5829602959
 C          4.5651901589       -3.0209288199        0.9674486481
 C          3.9889773934       -2.9232903514       -0.2893209275
 C          3.9416274251       -1.6965977819       -0.9327088799
 H          3.4966555840       -1.5740851904       -1.9074551752
 H          3.5726833450       -3.7954166896       -0.7683352280
 H          4.5951649740       -3.9754558302        1.4686924949
 H          5.5539370968       -1.9815692546        2.5592587274
 H          5.4794504120        0.2119850133        1.3925585414
 H          4.3723256033        2.6359304435        0.4342919551
 H          3.1761441312        2.7942109715        2.4701319763
 H          1.2838871996        1.9898380594        3.8362570708
 H         -0.2954161132        0.3355321994        2.9127165438
 H         -0.4594010088       -1.5614418846        1.2734339893
 C          0.1789372797       -1.5204388721       -0.7448603324
 C         -0.7775303024       -2.1737364490       -1.6954217618
 C         -0.0001086165       -0.9676237732       -2.1256803777
 H          0.8027493609       -1.0915531806       -2.8386310067
 H         -0.5174871067       -0.0259165517       -2.2255774502
 H         -0.5136477690       -3.1338586128       -2.1123650642
 H         -1.8340420159       -2.0560923541       -1.5030124161
 H          1.1063399878       -2.0518826168       -0.5527844784
