  62
        -98.93844263
 C         -1.3985980797       -1.6586566800       -0.0048615208
 C         -1.3658276197       -0.2436723300        0.0122201996
 C         -2.6329779396        0.4242605199        0.3526830601
 C         -3.7148359195       -0.3231847002        0.6362266001
 C         -5.0933285495        0.2098537897        0.9065799006
 C         -5.7642902998        0.6224116301       -0.4194234391
 C         -6.0372626698        2.1211194602       -0.5506408785
 H         -6.3058561900        2.3135264605       -1.5916724884
 H         -6.9018604397        2.3791489300        0.0646343817
 C         -4.8855682997        3.0492925901       -0.1525647285
 H         -5.1279969998        4.0397134002       -0.5437779981
 H         -4.8504302295        3.1438551097        0.9336801515
 C         -3.4928093998        2.6478123502       -0.6554508589
 H         -2.9616347199        3.5574754603       -0.9422317487
 H         -3.5706495200        2.0301412305       -1.5504133291
 C         -2.6188271096        1.9270792899        0.3878906506
 H         -1.5724872696        2.1950824400        0.2152573005
 H         -2.8882218894        2.2714011996        1.3898860108
 H         -5.1256826899        0.2942162704       -1.2423100193
 H         -6.7117140898        0.0922056902       -0.5282088291
 H         -5.6619113994       -0.5855418405        1.3886938505
 H         -5.0340703493        1.0573575495        1.5857672309
 O         -3.6979250495       -1.6824174402        0.6317965697
 C         -2.5456991096       -2.3833107701        0.3154699592
 O         -2.6680721896       -3.6244003301        0.3584214988
 H          2.2691056302       -1.1456587397       -0.8371093514
 C          2.1066197004       -1.3973388400        0.1966150885
 C          0.9574364705       -2.0595062202        0.5954077385
 C          0.7966400208       -2.3686716206        1.9443426585
 C          1.7616389410       -2.0210419309        2.8689439184
 C          2.9018357409       -1.3447863508        2.4698192683
 C          3.0705948006       -1.0317037203        1.1269028184
 N          4.2228881705       -0.3612794702        0.6915155784
 S          4.1538749502        0.7732383902       -0.5298500212
 O          3.9837629499        0.1259328807       -1.8067692814
 O          5.3848055702        1.5230125402       -0.3742031212
 C          2.7778186603        1.8543050201       -0.1853632606
 C          1.9791162001        2.2726560304       -1.2277355503
 C          0.9620786601        3.1774200104       -0.9738779397
 C          0.7593764004        3.6428094399        0.3147475205
 C          1.5655239706        3.2066584396        1.3541147101
 C          2.5889647406        2.3083358197        1.1040894996
 H          3.2325037107        1.9605660094        1.8960378394
 H          1.3971011508        3.5618630793        2.3584209203
 H         -0.0354435696        4.3455388799        0.5127783509
 H          0.3256373799        3.5064868406       -1.7800888995
 H          2.1611476398        1.8761421808       -2.2138707604
 H          4.8569764606       -0.0779602104        1.4238207483
 H          3.6556669010       -1.0661948010        3.1904813683
 H          1.6242324012       -2.2709004813        3.9101776683
 H         -0.1021403392       -2.8845353407        2.2550725785
 C         -0.1441931897       -2.4368536899       -0.3634351113
 H         -0.3873867797       -3.4976790499       -0.2093812316
 C          0.2136780999       -2.2254785994       -1.8190269814
 C          1.0787131898       -3.2234189391       -2.5262040419
 C         -0.3798011503       -3.1267478790       -2.8576117415
 H         -0.6667606505       -2.7010014687       -3.8075090713
 H         -1.0362904502       -3.9141260391       -2.5162375916
 H          1.7986461396       -2.8622806989       -3.2452076019
 H          1.4147337999       -4.0802299193       -1.9617814622
 H          0.3309266999       -1.1793293993       -2.0778878110
 O         -0.3358960797        0.4302430501       -0.2452074604
