  62
        -98.93691887
 C          1.8825727562        1.3285701911        0.0710770054
 C          2.2635992446        0.3128181393       -0.8378907668
 C          3.6873034637       -0.0646448849       -0.8249763061
 C          4.5275272653        0.5554005292        0.0226403741
 C          5.9812716901        0.2262778532        0.2093097110
 C          6.1260103125       -1.0482327802        1.0654400527
 C          6.7350920199       -2.2395206506        0.3256466414
 H          7.8114617416       -2.0838376855        0.2267619993
 H          6.5862392068       -3.1229111639        0.9503334356
 C          6.1720366072       -2.5166207070       -1.0716297342
 H          6.4984685507       -3.5203784624       -1.3521151045
 H          6.6222882954       -1.8312880836       -1.7913435248
 C          4.6459027434       -2.4394118732       -1.2086190455
 H          4.1630705639       -2.6184598323       -0.2474845163
 H          4.3246274614       -3.2400374247       -1.8781824242
 C          4.1216804498       -1.1195158568       -1.8047497836
 H          4.8714189770       -0.7021453942       -2.4826240248
 H          3.2274844069       -1.3362258844       -2.3967096935
 H          6.7472391270       -0.8332760623        1.9362009218
 H          5.1385023382       -1.3203978162        1.4444268394
 H          6.4562597073        0.0925280108       -0.7599977778
 H          6.4447222624        1.0756491842        0.7115643236
 O          4.1224446901        1.5236666141        0.8846139937
 C          2.8001162909        1.9258980627        0.9391314763
 O          2.5680844868        2.8131578965        1.7838859269
 H         -1.0373710686       -0.1564744495       -1.0427522613
 C         -1.0786545388       -0.2178131871        0.0330961115
 C         -0.3820431840        0.7020366307        0.8017620672
 C         -0.4280630786        0.5822530466        2.1875455760
 C         -1.1550657170       -0.4299912323        2.7870067721
 C         -1.8457088525       -1.3495956617        2.0163186182
 C         -1.7954163116       -1.2439842663        0.6334040945
 N         -2.5024431557       -2.1773911676       -0.1578107456
 S         -4.1712428300       -2.0997370027       -0.0335069943
 O         -4.5645849797       -2.5438528449        1.2793118661
 O         -4.6871810266       -2.8596915372       -1.1491722247
 C         -4.5462302832       -0.3677220671       -0.2336997470
 C         -4.5537801711        0.4530644585        0.8761395600
 C         -4.7566678070        1.8124117063        0.7003121798
 C         -4.9459612285        2.3246807115       -0.5737810072
 C         -4.9381131614        1.4861081132       -1.6778913328
 C         -4.7291383366        0.1270454592       -1.5095244536
 H         -4.7182804606       -0.5600315151       -2.3405985550
 H         -5.0896137508        1.8871620262       -2.6673473433
 H         -5.1003645803        3.3838262831       -0.7073463452
 H         -4.7628829118        2.4665636613        1.5573877376
 H         -4.4075482147        0.0165680100        1.8504371576
 H         -2.2350152235       -2.1410687059       -1.1318322176
 H         -2.4273892598       -2.1396645731        2.4633246180
 H         -1.1834899920       -0.5062788855        3.8635220891
 H          0.1225503830        1.2918940089        2.7895434562
 C          0.4412352843        1.8026287057        0.1792175346
 H          0.4589782560        2.6469134019        0.8807018201
 C         -0.1088915353        2.2836748286       -1.1479933225
 C         -1.4123258933        3.0227688208       -1.1672605491
 C         -0.1326240632        3.7514370070       -1.4446992008
 H          0.0697176540        4.0747660610       -2.4548028877
 H          0.2505043304        4.4208801980       -0.6884439131
 H         -1.9000405065        3.1922418332       -0.2193573934
 H         -2.0940522351        2.8460357706       -1.9847697704
 H          0.1087283934        1.6172963867       -1.9727330691
 O          1.4682225444       -0.2541820323       -1.6329146640
