  62
        -98.93617122
 C          2.2660764346        1.1029296871        0.3075148411
 C          1.6784259382        0.1927746586       -0.6033397514
 C          2.1555020488       -1.2044053511       -0.5346830263
 C          3.1217953651       -1.5232314448        0.3451021553
 C          3.7106786982       -2.8852224329        0.5859225568
 C          2.8062663167       -3.7636631007        1.4758757618
 C          1.3045400870       -3.5395114683        1.2952946839
 H          0.7892552845       -4.0429313572        2.1179135243
 H          1.0883924969       -2.4729343631        1.3898979919
 C          0.7156491890       -4.0660913912       -0.0127994132
 H          0.7223862930       -5.1584672069        0.0166337104
 H         -0.3246027744       -3.7364162200       -0.0621051255
 C          1.4256945041       -3.6313082114       -1.2929461548
 H          0.8612551670       -4.0456678165       -2.1330819901
 H          2.4173333727       -4.0743102871       -1.3358444112
 C          1.4931287344       -2.1234566963       -1.5304838321
 H          1.9843629994       -1.9504089990       -2.4959465203
 H          0.4741117342       -1.7366451337       -1.6402291438
 H          3.0440779509       -4.8124656797        1.2942270267
 H          3.0457407978       -3.5400825428        2.5179315518
 H          3.9146306893       -3.3630640873       -0.3683523053
 H          4.6646692650       -2.7371295264        1.0960014263
 O          3.6562484052       -0.6156779696        1.2093408250
 C          3.2307489276        0.6990567349        1.2327349698
 O          3.7711659226        1.4003729025        2.1118711331
 H          0.0260530857        1.1090105796        1.6657114052
 C         -0.4534499497        1.8303954884        1.0144233913
 C          0.3380160124        2.6779407033        0.2473200291
 C         -0.2929299770        3.5962763733       -0.5811734746
 C         -1.6751138385        3.6596588079       -0.6354717424
 C         -2.4572727934        2.8037799490        0.1164250901
 C         -1.8365028798        1.8658822665        0.9343871277
 N         -2.6115868700        0.9695983508        1.6940406494
 S         -3.8442127556        0.0821156971        0.9968327265
 O         -4.8413001495        0.9874115583        0.4821515583
 O         -4.2805545589       -0.8202780217        2.0384232233
 C         -3.1475972631       -0.8623270011       -0.3492430683
 C         -2.7102766093       -0.2131279427       -1.4870368894
 C         -2.1866900208       -0.9656226986       -2.5260788817
 C         -2.1268145755       -2.3464933538       -2.4205583651
 C         -2.5800067264       -2.9847255129       -1.2759632339
 C         -3.0860257949       -2.2364903227       -0.2252754390
 H         -3.4446593933       -2.6896507588        0.6850878106
 H         -2.5435408994       -4.0601085345       -1.2011992824
 H         -1.7246425896       -2.9276659868       -3.2356396171
 H         -1.8218371278       -0.4667827400       -3.4091581391
 H         -2.7753083641        0.8600762585       -1.5508505930
 H         -2.0628899102        0.3705100454        2.2933021137
 H         -3.5339339428        2.8308517909        0.0681061175
 H         -2.1511751458        4.3827516699       -1.2805965103
 H          0.2925073390        4.2553140630       -1.2001840371
 C          1.8389544343        2.5586859204        0.3690153887
 H          2.1178145978        2.8941933494        1.3825171205
 C          2.5894517265        3.4568296074       -0.6059379306
 C          3.9077600246        3.0478511839       -1.1903374641
 C          2.6921114793        3.1185637450       -2.0620293050
 H          2.6255869905        3.9193596083       -2.7838427192
 H          2.2376048948        2.1957614241       -2.3860884640
 H          4.6701045429        3.8043598871       -1.3031347477
 H          4.2978569066        2.0751362563       -0.9277263290
 H          2.4916286499        4.5076851032       -0.3520523637
 O          0.7861619852        0.5096602572       -1.4308883089
