  62
        -98.93342896
 C          2.5633599325        1.1978603084        0.3092364847
 C          2.5136397957        0.1710597744       -0.6631322269
 C          3.7552385432       -0.6065499373       -0.8556558910
 C          4.8404060570       -0.3087973836       -0.1219982087
 C          6.1801520922       -0.9913049540       -0.1414980670
 C          6.2523021412       -2.0821791427        0.9401283134
 C          5.7315055594       -3.4519525041        0.5070144780
 H          6.4347742896       -3.8951680863       -0.2011994252
 H          5.7152005256       -4.0890181150        1.3943044786
 C          4.3367405351       -3.4511654167       -0.1243019004
 H          3.6754142226       -2.7937484613        0.4432020905
 H          3.9325431324       -4.4620675298       -0.0438654781
 C          4.3438271764       -3.0357767771       -1.6030780559
 H          5.3705576356       -3.0374922103       -1.9687461039
 H          3.8053358393       -3.7824822947       -2.1903659208
 C          3.6892116890       -1.6803276737       -1.9074700397
 H          4.1082790749       -1.2833797752       -2.8384389061
 H          2.6187900841       -1.8253642477       -2.0852565312
 H          5.6885391759       -1.7306648862        1.8081186498
 H          7.2922268698       -2.1983155994        1.2520079235
 H          6.3915047451       -1.3980682196       -1.1259050286
 H          6.9223203278       -0.2239546484        0.0889696569
 O          4.8378826357        0.6747487481        0.8203897111
 C          3.7107454516        1.4326476781        1.0715118370
 O          3.8495073903        2.2707185392        1.9848032254
 H         -0.8499683786        1.9457229662       -1.0256533904
 C         -0.9267072195        1.2971151553       -0.1665909567
 C          0.1151723927        1.2332961766        0.7444184427
 C         -0.0012364197        0.3647026992        1.8259118276
 C         -1.1280221220       -0.4187133136        1.9869041264
 C         -2.1648347558       -0.3534702939        1.0725749025
 C         -2.0574775375        0.5062660504       -0.0111733529
 N         -3.1036758433        0.5650097929       -0.9498951908
 S         -4.6457156796        0.8984450880       -0.3792810647
 O         -5.3458689584        1.4951705379       -1.4962122993
 O         -4.5999107811        1.6762042912        0.8378448794
 C         -5.3445836919       -0.7057952768       -0.0514904666
 C         -5.3958628670       -1.6182574362       -1.0870195710
 C         -5.9520261120       -2.8655385785       -0.8525288025
 C         -6.4474067847       -3.1764301657        0.4052333083
 C         -6.3901971071       -2.2485711598        1.4338169666
 C         -5.8340184449       -0.9993244399        1.2060474935
 H         -5.7642155298       -0.2477469963        1.9762105850
 H         -6.7756499070       -2.4923060470        2.4108265249
 H         -6.8807871851       -4.1477150998        0.5846637346
 H         -5.9976818987       -3.5900558520       -1.6496470415
 H         -5.0039218816       -1.3361793246       -2.0499951839
 H         -2.8897681826        1.1310679613       -1.7582937206
 H         -3.0460717061       -0.9634940620        1.1884626588
 H         -1.2005185525       -1.0880422223        2.8308338236
 H          0.8105129243        0.3103297628        2.5392507881
 C          1.3614039889        2.0740585140        0.6187824717
 H          1.5740406823        2.5037848342        1.6116761626
 C          1.1919734687        3.2519978872       -0.3300507832
 C          2.3860727676        3.9430639562       -0.9155395008
 C          1.4683782556        3.1555924305       -1.7993200902
 H          0.8240554105        3.6968281196       -2.4774460944
 H          1.8098538611        2.2081190477       -2.1850566127
 H          2.3724458448        5.0203448502       -0.9853771035
 H          3.3597886122        3.5326180258       -0.6908354687
 H          0.3663627800        3.8916777375       -0.0305962610
 O          1.4935382976       -0.0985927332       -1.3481383431
