  62
        -98.94626820
 C         -1.1913968909       -1.7487840994       -0.1964831702
 C         -1.3528218604       -0.6209398693       -1.0399155802
 C         -2.6850218102        0.0067470013       -1.0240401702
 C         -3.6539638004       -0.5006730984       -0.2430264302
 C         -5.0270120002        0.0834595621       -0.0828806802
 C         -5.0723973198        1.0824040820        1.0816321598
 C         -3.9498328794        2.1205779016        1.0541893199
 H         -2.9895560996        1.6245333512        1.2165564499
 H         -4.1064172592        2.7916752616        1.9019040700
 C         -3.8742137091        2.9428619617       -0.2395716700
 H         -3.7282667387        3.9929345616        0.0227218001
 H         -4.8184701291        2.8703759621       -0.7818040500
 C         -2.7219311492        2.5543770913       -1.1680562100
 H         -1.7871588892        2.5377891009       -0.6001511500
 H         -2.6261307889        3.3324034713       -1.9313783399
 C         -2.8827203997        1.2137474714       -1.8969310101
 H         -2.1065217497        1.1584813411       -2.6659047501
 H         -3.8573717497        1.1784477118       -2.3890339801
 H         -4.9991916301        0.5257591319        2.0188721798
 H         -6.0382596996        1.5908675424        1.0627836299
 H         -5.7253786405       -0.7301131177        0.1211258797
 H         -5.3178448500        0.5758122823       -1.0087864802
 O         -3.4714173508       -1.5968509785        0.5369057197
 C         -2.2417499311       -2.2303569090        0.5900761297
 O         -2.2089538715       -3.2131491291        1.3593015296
 O         -0.4537610302       -0.1428883195       -1.7785582101
 C          0.1194278088       -2.4993727199       -0.0317272503
 C          0.9737899890       -1.8829442603        1.0513007698
 C          1.6562900987       -2.6805777306        1.9626571998
 C          2.4645459289       -2.1089546910        2.9286547398
 C          2.6199314194       -0.7360666310        2.9949580299
 C          1.9385666698        0.0707118093        2.0897559599
 C          1.1195773796       -0.5065028203        1.1296132799
 H          0.5840075698        0.1304331099        0.4447221999
 N          2.0688558503        1.4622566492        2.1334043200
 S          1.7773694907        2.4081440494        0.7909775501
 O          2.4963326212        3.6358793491        1.0708260602
 O          0.3584394508        2.5582567800        0.5894544701
 C          2.5379292004        1.5804351392       -0.5945486899
 C          3.7441116502        0.9317314788       -0.4153361400
 C          4.3292451199        0.2955932286       -1.4973553700
 C          3.7065274900        0.3251036589       -2.7359138000
 C          2.5054908802        0.9950969194       -2.9025120500
 C          1.9128033705        1.6301526896       -1.8226561699
 H          0.9646445907        2.1346691299       -1.9094331699
 H          2.0148854303        1.0144776996       -3.8622791500
 H          4.1587492498       -0.1786456912       -3.5759286800
 H          5.2642861597       -0.2257936218       -1.3699526700
 H          4.2093634001        0.9202723985        0.5568134101
 H          2.7961422604        1.8260693989        2.7295157501
 H          3.2527916296       -0.2881328013        3.7455097000
 H          2.9837755987       -2.7379170712        3.6354209798
 H          1.5372951683       -3.7526577805        1.9201944397
 H         -0.1533124016       -3.5132699098        0.2931693697
 C          0.9391412388       -2.6050570901       -1.3044646403
 C          1.8632500484       -3.7693001504       -1.4890258003
 C          0.6117664984       -3.6677703799       -2.3074563303
 H          0.6920635886       -3.4251353199       -3.3560238003
 H         -0.2052095018       -4.3363487196       -2.0765704104
 H          2.8104858585       -3.5983174808       -1.9760836603
 H          1.8961748581       -4.5163520505       -0.7107740004
 H          1.2585154592       -1.6435959502       -1.6849290702
