  62
        -98.94791857
 C          0.9491076654        1.0319920442        0.7048874937
 C          1.5439236928        0.9152141863       -0.5743793148
 C          2.2557908230       -0.3425656665       -0.8315198777
 C          2.2569059953       -1.3137947021        0.0985800325
 C          2.8984218209       -2.6688565139       -0.0359232957
 C          4.3977406031       -2.6888777106        0.2920839458
 C          5.3021978055       -2.0345855328       -0.7527710675
 H          6.3290660648       -2.3113672811       -0.5058720399
 H          5.0799292927       -2.4512434130       -1.7357385782
 C          5.2030539858       -0.5037316113       -0.8065493699
 H          6.2068715433       -0.0748307749       -0.8438864308
 H          4.7305676322       -0.1366577450        0.1072666127
 C          4.4339260203        0.0394568526       -2.0110339633
 H          4.3924895369        1.1285756239       -1.9296840443
 H          4.9681010505       -0.2092941477       -2.9307639053
 C          2.9948606051       -0.4804462518       -2.1273310540
 H          2.4659955213        0.1197129028       -2.8723371460
 H          2.9926617836       -1.5192025287       -2.4587831169
 H          4.6943822171       -3.7354045897        0.3931250596
 H          4.5491840061       -2.2043640707        1.2592335238
 H          2.3848843506       -3.3286640083        0.6670733281
 H          2.7378406003       -3.0486077503       -1.0459252542
 O          1.6322413031       -1.1805515426        1.2993222552
 C          0.9680085296       -0.0097669955        1.6308258882
 O          0.4368161456       -0.0229397329        2.7597708244
 H         -1.4639290817        0.3368289860        0.3072628714
 C         -1.7394194720        1.2675636212       -0.1671851152
 C         -1.0044124380        2.4126538149        0.1120237646
 C         -1.3800746538        3.6051232872       -0.4917334460
 C         -2.4463286927        3.6335352509       -1.3747337265
 C         -3.1466320283        2.4816025784       -1.6829043132
 C         -2.7855906842        1.2853429028       -1.0730213544
 N         -3.4723225767        0.0904558625       -1.3380407429
 S         -2.6178614775       -1.3481174809       -1.3954681340
 O         -1.2946847398       -1.1735615167       -1.9482804259
 O         -3.4900642556       -2.2488390504       -2.1222687182
 C         -2.5188661208       -1.8897721086        0.2964677613
 C         -3.6167725181       -1.7406909945        1.1201081769
 C         -3.5320600973       -2.1847616747        2.4298195255
 C         -2.3619632298       -2.7700349357        2.8891488044
 C         -1.2718786112       -2.9202356874        2.0468499339
 C         -1.3505425267       -2.4785876144        0.7363714508
 H         -0.5198464185       -2.5574944922        0.0513930236
 H         -0.3565779851       -3.3618062890        2.4070464242
 H         -2.2938241011       -3.1066190649        3.9115203340
 H         -4.3759152325       -2.0684204441        3.0907925579
 H         -4.5065431650       -1.2748794139        0.7305080304
 H         -4.1682045199        0.1463281218       -2.0676123954
 H         -3.9613736440        2.5028523159       -2.3905183079
 H         -2.7256525878        4.5649743888       -1.8434962190
 H         -0.8322980008        4.5090722305       -0.2816208374
 C          0.1602996591        2.2788195141        1.0639771268
 H         -0.2426281181        2.1039037820        2.0726217529
 C          1.0596500919        3.4960341143        1.0995625121
 C          0.7369694089        4.6460050328        2.0045566082
 C          1.8912110895        3.7445328983        2.3208907832
 H          2.8942916477        4.1230095106        2.1935349739
 H          1.7884063443        3.0473422729        3.1398839105
 H          0.9503776325        5.6474387713        1.6623722221
 H         -0.1482799517        4.5670064394        2.6171813946
 H          1.5083213271        3.7094360330        0.1363033529
 O          1.4872460945        1.8124528181       -1.4555916417
