  62
        -98.93474025
 C         -1.5053514615       -0.7790055617        0.5198981837
 C         -2.6176587079       -0.9979942925       -0.3259267416
 C         -3.5870329469        0.1144526586       -0.4485152758
 C         -3.3411740595        1.2718058740        0.1909979254
 C         -4.1906186399        2.5138974315        0.2325685039
 C         -5.4024013015        2.3690401477        1.1681586966
 C         -6.1413005623        1.0372763888        1.0630493341
 H         -5.4417278988        0.2226944806        1.2600423766
 H         -6.8962275752        1.0129968532        1.8535327110
 C         -6.8495964267        0.7887624767       -0.2664891964
 H         -7.3921525144       -0.1556425083       -0.1736553003
 H         -7.5858227776        1.5785821509       -0.4323772938
 C         -5.9477155393        0.7001022838       -1.4990436005
 H         -5.6215792258        1.6868324450       -1.8162341808
 H         -6.5536957008        0.2966485209       -2.3156788886
 C         -4.7488754904       -0.2314620830       -1.3488562280
 H         -5.1008560144       -1.2158979288       -1.0199153498
 H         -4.3134997189       -0.3998610132       -2.3412127245
 H         -5.0481008412        2.4709161957        2.1969206735
 H         -6.0944154692        3.1885962151        0.9675428224
 H         -3.5547407766        3.3169711846        0.6115048633
 H         -4.5048282998        2.7853199752       -0.7707706048
 O         -2.2324399701        1.4510990208        0.9660552530
 C         -1.3081790647        0.4462527481        1.1597978373
 O         -0.3620947945        0.7557591271        1.9129647958
 H          2.2107147953       -1.3843323024        1.1927931561
 C          1.9683759477       -1.4546451229        0.1431434355
 C          0.6611144264       -1.6856681792       -0.2567463593
 C          0.3772648097       -1.7567715090       -1.6180788989
 C          1.3863235111       -1.6075264497       -2.5507631771
 C          2.6884682715       -1.3630900870       -2.1482158551
 C          2.9800245728       -1.2808164151       -0.7925309798
 N          4.2918133210       -1.0304654551       -0.3507739213
 S          4.5485413547        0.2008876129        0.7579520990
 O          5.9766079684        0.4287045981        0.7170886942
 O          4.0018444622       -0.1683874904        2.0370712896
 C          3.6952668007        1.6034225779        0.0616292722
 C          2.3702675528        1.8366439262        0.3683256538
 C          1.7183043339        2.8889469754       -0.2568550821
 C          2.3934259613        3.6848612976       -1.1682838310
 C          3.7270606451        3.4395890875       -1.4608988834
 C          4.3832492216        2.3865701261       -0.8463441266
 H          5.4208804578        2.1653550620       -1.0380933908
 H          4.2529259195        4.0633499418       -2.1656541354
 H          1.8777574745        4.5011429477       -1.6493108116
 H          0.6812541051        3.0692033706       -0.0187439658
 H          1.8526235643        1.2169744033        1.0839604976
 H          4.9684512076       -0.9658071656       -1.0986115661
 H          3.4739468584       -1.2373368312       -2.8778302033
 H          1.1561963068       -1.6717612169       -3.6034529560
 H         -0.6409262625       -1.9332866782       -1.9304970596
 C         -0.4288040681       -1.8217142126        0.7748129638
 H          0.0087202973       -1.5508849321        1.7495878368
 C         -0.9732039624       -3.2374669992        0.9053063001
 C         -0.6456520685       -4.3471378697       -0.0437540568
 C         -0.0516009813       -4.3426475718        1.3304354615
 H         -0.4023194377       -5.0623773472        2.0546219260
 H          0.9976369762       -4.1013574448        1.4211486726
 H          0.0038745259       -4.1358373506       -0.8781275957
 H         -1.4282823384       -5.0551618808       -0.2696917203
 H         -1.9716537272       -3.2511646071        1.3295254615
 O         -2.8237721779       -2.0651394693       -0.9582004242
