  62
        -98.94369099
 C         -1.8127763496       -0.8945252299        0.7998182796
 C         -2.0193279197       -0.4064702999       -0.5132117904
 C         -3.4181164898       -0.3560465001       -0.9570036403
 C         -4.3968098397       -0.7857567903       -0.1399525203
 C         -5.8673960897       -0.8117506005       -0.4578544903
 C         -6.5822157699        0.5236045294       -0.2088525203
 C         -6.2655096401        1.6298358094       -1.2162040103
 H         -6.4187666600        1.2530266194       -2.2279010703
 H         -6.9917537902        2.4286447593       -1.0528962803
 C         -4.8517946301        2.2152609597       -1.0911721903
 H         -4.4308449701        1.9481026397       -0.1190449303
 H         -4.9046400503        3.3057598497       -1.1267154203
 C         -3.8825147701        1.7724655598       -2.1873070203
 H         -4.2224893702        2.1538743798       -3.1527198703
 H         -2.9037722202        2.2108169600       -1.9759307403
 C         -3.7061614099        0.2523200499       -2.2960929103
 H         -4.5932812698       -0.1995141603       -2.7390870603
 H         -2.8485029898        0.0522982200       -2.9426086103
 H         -6.3379560499        0.8677067394        0.7989287997
 H         -7.6567163398        0.3288977392       -0.2414522103
 H         -6.0136537496       -1.1166254305       -1.4943633503
 H         -6.3131244095       -1.5668133006        0.1932723397
 O         -4.1511576496       -1.2764721803        1.1048289497
 C         -2.8625824396       -1.3181088201        1.6134552796
 O         -2.7840913595       -1.7465286401        2.7833801696
 H          2.0797408202       -0.1735720693        0.4554787596
 C          1.4888430001        0.6488681906        0.8203634696
 C          0.2168252102        0.4243861904        1.3209177496
 C         -0.5116338900        1.5097394403        1.8021947696
 C          0.0134536598        2.7861137804        1.7626497496
 C          1.2807232798        3.0074835206        1.2520408196
 C          2.0211252999        1.9310900607        0.7800204696
 N          3.2928709599        2.1290796109        0.2288200396
 S          4.4949901101        0.9814673311        0.3728658896
 O          4.4737609702        0.3424079010        1.6682279996
 O          5.7115292400        1.6934005013        0.0423247495
 C          4.1564462102       -0.2105343090       -0.9056486305
 C          3.6459168201        0.2177211910       -2.1146431504
 C          3.4151633503       -0.7171179191       -3.1110837304
 C          3.7043300505       -2.0545152290       -2.8872886305
 C          4.2237814406       -2.4675358689       -1.6702601005
 C          4.4535083404       -1.5381171589       -0.6681784805
 H          4.8456065805       -1.8161417589        0.2974769395
 H          4.4478956507       -3.5083986789       -1.4978989205
 H          3.5215780906       -2.7795204590       -3.6648022305
 H          3.0063918602       -0.4000894691       -4.0570167104
 H          3.4243572300        1.2623934709       -2.2553383104
 H          3.6485819597        3.0719135809        0.2768466196
 H          1.6907521296        4.0053025606        1.2152163796
 H         -0.5664398603        3.6178449103        2.1340149797
 H         -1.5021021000        1.3370795501        2.2020765097
 C         -0.4055603896       -0.9501024197        1.3658371796
 H         -0.5090544796       -1.2438874797        2.4209516296
 C          0.4030455805       -2.0065216496        0.6418205996
 C          1.5303781006       -2.7061146494        1.3375839896
 C          0.2545726308       -3.4391145896        1.0536918996
 H          0.2557464109       -4.1990695696        0.2870867496
 H         -0.4114545992       -3.6507986697        1.8777858596
 H          2.4072914807       -2.9627878693        0.7628710295
 H          1.7424347706       -2.4233741794        2.3578891796
 H          0.5065843205       -1.7978595195       -0.4170507504
 O         -1.0900985798       -0.0334697098       -1.2741696804
