  62
        -98.94755932
 C          0.7519294877        1.2719898244        0.0701537100
 C          1.4549198182        0.5565473477        1.0675011809
 C          2.3955817166       -0.4615821730        0.5820953278
 C          2.4814721449       -0.7001685730       -0.7392774654
 C          3.4649191269       -1.6361690012       -1.3784305243
 C          4.7599891103       -0.8996226760       -1.7521681650
 C          5.3394805636       -0.0491403506       -0.6215487772
 H          6.2647493943        0.3973197612       -0.9924010912
 H          4.6525040191        0.7719017480       -0.4037227275
 C          5.6292662072       -0.8227762506        0.6723616604
 H          6.6122658369       -0.5267122801        1.0447223636
 H          5.6712654946       -1.8922713777        0.4634595507
 C          4.6301026012       -0.5662744989        1.8022483654
 H          4.5181289834        0.5101164340        1.9556888474
 H          5.0427767537       -0.9858841647        2.7237118833
 C          3.2352341615       -1.1738835529        1.6045770265
 H          3.3324036462       -2.2325679369        1.3583754021
 H          2.6953173109       -1.0852533521        2.5519231221
 H          5.4987337893       -1.6385477565       -2.0677296995
 H          4.5524043211       -0.2428483149       -2.5999810200
 H          3.6863896890       -2.4508650986       -0.6925700163
 H          3.0164630305       -2.0399393951       -2.2868866464
 O          1.7169308235       -0.0594899153       -1.6592148591
 C          0.8596675523        0.9642153030       -1.2861434123
 O          0.2614997752        1.5057398032       -2.2344398213
 O          1.3150131203        0.7705711827        2.3029248237
 C         -0.1554238558        2.4156235275        0.4822818063
 C         -1.5489320493        2.2263350761       -0.0615882203
 C         -2.2979165015        3.2582051251       -0.6125419044
 C         -3.5744928889        3.0176246773       -1.0899263224
 C         -4.1309381626        1.7543096690       -1.0224165094
 C         -3.3918150519        0.7154896525       -0.4662344893
 C         -2.1157806221        0.9604820522        0.0127626933
 H         -1.5463635585        0.1542571100        0.4525197738
 N         -3.9099723790       -0.5840200627       -0.4189767745
 S         -3.4071842363       -1.6904721721        0.7173142190
 O         -4.3872013781       -2.7534103548        0.6337670789
 O         -3.2470820296       -1.0910885862        2.0220988961
 C         -1.8501843045       -2.3073801373        0.1157568007
 C         -1.6858239400       -2.5162943683       -1.2387575274
 C         -0.4988626406       -3.0701147370       -1.6901513926
 C          0.4921548505       -3.4152968895       -0.7847377612
 C          0.3141951042       -3.1933168098        0.5714519041
 C         -0.8666600416       -2.6320071228        1.0284500770
 H         -1.0392348234       -2.4303971296        2.0741349773
 H          1.0864793729       -3.4539951213        1.2767874591
 H          1.4083348866       -3.8607944116       -1.1376242922
 H         -0.3518957477       -3.2325304206       -2.7458545318
 H         -2.4771809903       -2.2404411582       -1.9158898156
 H         -4.8766616140       -0.6900239107       -0.6859150699
 H         -5.1241247576        1.5666062911       -1.4005871586
 H         -4.1445892190        3.8266302286       -1.5209470505
 H         -1.8815366735        4.2501652982       -0.6742111931
 H         -0.2097751653        2.3685854298        1.5809699845
 C          0.4726116320        3.7360497183        0.0821503357
 C          0.2470936793        4.9679619514        0.9053917212
 C          1.5835152733        4.2906365882        0.9208216213
 H          2.4140336751        4.7718851313        0.4263232609
 H          1.8644364571        3.7305510138        1.8009829201
 H          0.1625267851        5.9183517604        0.4001728415
 H         -0.3762898184        4.8763137559        1.7820807906
 H          0.5558635377        3.8449841908       -0.9937921112
