  62
        -98.94225699
 C          1.9238458296        1.3298322294       -0.0883744512
 C          3.0580590997        1.2116340498        0.7577174187
 C          4.2357792796        0.5528289694        0.1844761289
 C          4.2022391994        0.1221319287       -1.0891479708
 C          5.3278843593       -0.5471770317       -1.8297233606
 C          5.4272596392       -2.0581458116       -1.5789462099
 C          5.9484361293       -2.4552203810       -0.1971485897
 H          6.1741599192       -3.5228255810       -0.2348250992
 H          6.8841951793       -1.9316757310        0.0010952599
 C          4.9609014694       -2.2008322603        0.9505008003
 H          4.9235082894       -3.0784356900        1.5999137707
 H          3.9559074194       -2.0631112404        0.5441940303
 C          5.3069405096       -1.0002274799        1.8315497296
 H          4.5223686397       -0.8919002495        2.5848524596
 H          6.2494493996       -1.1868229897        2.3510034996
 C          5.4217662097        0.3282526897        1.0726346889
 H          5.4478770098        1.1397596301        1.8039352685
 H          6.3430691696        0.3510212693        0.4908610288
 H          6.1047337891       -2.4693868821       -2.3309108297
 H          4.4431953091       -2.5051206416       -1.7391181695
 H          5.1399876792       -0.3863339322       -2.8935586607
 H          6.2731489194       -0.0710690917       -1.5677365609
 O          3.1061973594        0.2696237484       -1.8764592408
 C          1.9347389695        0.8477720488       -1.3978011910
 O          1.0138154294        0.8602104085       -2.2364745109
 H         -0.3082834706       -0.1913145707       -0.7019272702
 C         -0.6920899505       -0.0738253901        0.3008790597
 C         -0.2720211103        1.0043229702        1.0682870192
 C         -0.7848641201        1.1450139009        2.3523140691
 C         -1.6908833702        0.2266099913        2.8548410897
 C         -2.1047427204       -0.8474865891        2.0880809503
 C         -1.5986187205       -0.9963842798        0.8028509903
 N         -2.0179503307       -2.0810363801        0.0080446309
 S         -3.6712030907       -2.2814098701       -0.1841080589
 O         -4.2208414706       -2.8647732794        1.0140185015
 O         -3.8274630209       -3.0524849307       -1.3962154285
 C         -4.2998136006       -0.6277543601       -0.4021130096
 C         -4.0666295106       -0.0006446008       -1.6100939100
 C         -4.4832531805        1.3100954292       -1.7763422506
 C         -5.1126982504        1.9712287098       -0.7326712108
 C         -5.3408558903        1.3268940604        0.4731770995
 C         -4.9311291904        0.0141430504        0.6440102101
 H         -5.0934924104       -0.5242802291        1.5629419204
 H         -5.8318376502        1.8434514808        1.2819319693
 H         -5.4248348303        2.9952421897       -0.8620315213
 H         -4.3054342506        1.8124757987       -2.7134875508
 H         -3.5722017408       -0.5453277312       -2.3989680897
 H         -1.5568280908       -2.1124691206       -0.8901325592
 H         -2.8059581404       -1.5753298188        2.4628052507
 H         -2.0767555901        0.3460607018        3.8555225197
 H         -0.4576979200        1.9737173012        2.9627988287
 C          0.7032170598        2.0082501899        0.5087791186
 H          1.0997991899        2.5875941102        1.3574817282
 C          0.0456460998        2.9986700894       -0.4435131619
 C         -1.2722384303        2.7634554592       -1.1115679316
 C         -1.1649963201        3.7716671098       -0.0098405621
 H         -1.2235545901        4.8207233697       -0.2562758126
 H         -1.6019801401        3.5133097003        0.9427265480
 H         -1.7933114004        1.8410934694       -0.9092985711
 H         -1.3821423904        3.1081448887       -2.1281491018
 H          0.7852949297        3.5397551191       -1.0257113922
 O          3.0849445399        1.6488701604        1.9388712285
