  62
        -98.93916939
 C         -2.2470367300       -0.8523768205       -0.0354829200
 C         -3.2613359375       -0.6845773142        0.9374689605
 C         -4.1750263926        0.4610562706        0.7682029301
 C         -3.9750789186        1.2975097895       -0.2672083578
 C         -4.7872209410        2.5027124943       -0.6599159229
 C         -6.1126984519        2.1262474975       -1.3426094135
 C         -6.8747882507        0.9803773703       -0.6817520343
 H         -7.7267374417        0.7361737838       -1.3218020246
 H         -6.2336173937        0.0977820208       -0.6458131323
 C         -7.4114580051        1.2761595539        0.7166495403
 H         -7.9973371824        0.4081017289        1.0294346234
 H         -8.0878928475        2.1323548807        0.6665518051
 C         -6.3595531385        1.5518748475        1.7928704743
 H         -5.9587679329        2.5576828798        1.7002935764
 H         -6.8664113255        1.5081253452        2.7613260688
 C         -5.2240604843        0.5347867095        1.8516801235
 H         -4.6707565760        0.6846268233        2.7866796968
 H         -5.6489701999       -0.4725342336        1.9276261767
 H         -5.8891346327        1.8278444831       -2.3698055931
 H         -6.7455413591        3.0144811710       -1.3799312712
 H         -4.9618804438        3.1327236152        0.2072128051
 H         -4.1804484049        3.0724958646       -1.3673377046
 O         -2.9676293546        1.1119346832       -1.1670836555
 C         -2.0857693170        0.0499141843       -1.0858791451
 O         -1.2337782403        0.0271748724       -1.9963535190
 H          0.8400351564       -1.4233919781       -1.4922953429
 C          1.0355559501       -1.2212846868       -0.4511941464
 C          0.0618828826       -1.4898239016        0.4977705156
 C          0.3270562117       -1.1837713731        1.8298808592
 C          1.5382784565       -0.6297713926        2.1985906230
 C          2.5073032550       -0.3599945268        1.2472893506
 C          2.2443601416       -0.6430111973       -0.0856716793
 N          3.2145112714       -0.3631813031       -1.0629008762
 S          3.9949697125        1.1215109149       -1.0146682845
 O          3.1735204260        2.1467458865       -0.4132673177
 O          4.4352096108        1.3618928009       -2.3718798319
 C          5.4234646593        0.8053066340        0.0029467046
 C          6.2283324306       -0.2694764117       -0.3211664522
 C          7.3490291410       -0.5239697235        0.4529110762
 C          7.6470655509        0.2977391722        1.5298332807
 C          6.8317368841        1.3752685440        1.8398244623
 C          5.7081452412        1.6344805881        1.0700655886
 H          5.0418840083        2.4569229281        1.2773498539
 H          7.0650673877        2.0137509201        2.6767192716
 H          8.5200246535        0.0975818346        2.1308076597
 H          7.9851791678       -1.3611669479        0.2148647407
 H          5.9630199786       -0.8817344571       -1.1666706046
 H          2.9058224316       -0.5710861397       -2.0019908183
 H          3.4492779262        0.0834978261        1.5256151435
 H          1.7313982238       -0.4020891576        3.2359272476
 H         -0.4374878065       -1.3739463829        2.5701809337
 C         -1.2956706400       -2.0277050444        0.1196454802
 H         -1.6837860485       -2.6022717183        0.9713373477
 C         -1.2812377605       -2.9193776667       -1.1041456390
 C         -0.6665908598       -4.2827624366       -1.0068830557
 C         -2.1525235566       -4.1377975712       -1.1334056320
 H         -2.6211464157       -4.4120082770       -2.0667510063
 H         -2.7621837399       -4.3370355155       -0.2644049716
 H         -0.1126716157       -4.6610317776       -1.8523391581
 H         -0.2658583701       -4.5784242487       -0.0492324338
 H         -1.1656849096       -2.3746698105       -2.0333125311
 O         -3.4106728007       -1.4688863318        1.9126763100
