  62
        -98.93511072
 C         -2.2730927662       -0.4011568110        0.2637183056
 C         -3.5205784212       -0.8209915100        0.7785283439
 C         -4.6761899657        0.0502454023        0.5033043653
 C         -4.4968259153        1.1755228037       -0.2138149042
 C         -5.4681848691        2.2666610114       -0.6144446291
 C         -6.9750092728        2.0584575314       -0.4859435499
 C         -7.5597287043        1.0140780996       -1.4363438563
 H         -7.5078317003        1.4049461914       -2.4556674827
 H         -8.6138870001        0.8764609214       -1.1861871055
 C         -6.8660090252       -0.3458161358       -1.4296349759
 H         -5.8347839011       -0.2337845775       -1.7709737045
 H         -7.3765831646       -0.9851554611       -2.1549907014
 C         -6.8678864730       -1.0739461859       -0.0870827809
 H         -6.4864105269       -2.0837963520       -0.2603160937
 H         -7.8913812928       -1.1619638621        0.2822841031
 C         -6.0025825266       -0.4358150119        1.0132083796
 H         -5.7798222987       -1.2069083728        1.7564797279
 H         -6.5353285783        0.3637841314        1.5220876813
 H         -7.4421054865        3.0180877676       -0.7235757703
 H         -7.2368216838        1.8278302634        0.5423808517
 H         -5.1879311469        3.1440174495       -0.0210296649
 H         -5.2275881802        2.5107191419       -1.6540686189
 O         -3.2675024650        1.5427578314       -0.6850289408
 C         -2.1346821493        0.7759006124       -0.4680857255
 O         -1.0935371044        1.2447442632       -0.9677024942
 H          1.6472152280       -1.0753857902       -0.0720841831
 C          1.3513738273       -0.4886273904        0.7803366617
 C          0.0303553026       -0.4685605504        1.1990875784
 C         -0.3047148611        0.2962690252        2.3138700762
 C          0.6533473712        1.0420548018        2.9714762360
 C          1.9661168384        1.0402808670        2.5336575227
 C          2.3165384376        0.2647158905        1.4353031496
 N          3.6578931687        0.2022296621        1.0149596910
 S          4.0401690416        0.1002182996       -0.6257635981
 O          3.4835521947        1.2222775603       -1.3488288823
 O          3.6982360141       -1.2123119129       -1.1111360866
 C          5.8147892743        0.2519938005       -0.5236711137
 C          6.4161482261        1.4648399676       -0.8005908113
 C          7.7940715254        1.5706168644       -0.6913651002
 C          8.5424481914        0.4685903454       -0.3063298683
 C          7.9246231589       -0.7427421273       -0.0322394666
 C          6.5478765082       -0.8554841507       -0.1409680632
 H          6.0248252011       -1.7772493858        0.0529011345
 H          8.5102300886       -1.5979953031        0.2640940593
 H          9.6143218181        0.5536648208       -0.2218618869
 H          8.2773006399        2.5099752162       -0.9069673093
 H          5.7944438939        2.2919175850       -1.1042867580
 H          4.2269178493        0.9135150194        1.4553719922
 H          2.7129994843        1.6317063683        3.0414193797
 H          0.3759115293        1.6373456389        3.8285878894
 H         -1.3326622642        0.3052295984        2.6507922574
 C         -1.0482968655       -1.2625280798        0.5049261181
 H         -1.3806297578       -2.0603198370        1.1867476500
 C         -0.5896423813       -1.8940973941       -0.7927470724
 C          0.1005570890       -3.2241230321       -0.7854176728
 C         -1.3003137573       -3.1097231385       -1.3046483834
 H         -1.4686280941       -3.1991023145       -2.3674401701
 H         -2.1037193758       -3.5033181193       -0.6991267277
 H          0.2481662247       -3.7029391403        0.1708245778
 H          0.9039763169       -3.3879514306       -1.4881229152
 H         -0.2685258920       -1.1577709525       -1.5230144073
 O         -3.6639640080       -1.8757179176        1.4539127915
