  62
        -98.94486758
 C         -1.8462313504       -1.1028483306       -0.1669821105
 C         -2.9979996602       -1.1554300513        0.6642292697
 C         -4.2134540404       -0.5267448212        0.1389936003
 C         -4.1975286907        0.0301522196       -1.0851399093
 C         -5.3608570910        0.6853953598       -1.7782082687
 C         -5.5736096911        2.1536649896       -1.3851379778
 C         -6.1372386309        2.3752417686        0.0190364925
 H         -6.4394776510        3.4225844385        0.0809821532
 H         -7.0346976408        1.7695627284        0.1487578523
 C         -5.1459255806        2.0803372881        1.1536236221
 H         -5.1788111306        2.8906378776        1.8854987926
 H         -4.1295447807        2.0548405585        0.7531702019
 C         -5.4135185303        0.7778815976        1.9082627514
 H         -4.6321638501        0.6536260472        2.6623955311
 H         -6.3732064902        0.8450577671        2.4254376616
 C         -5.4222449102       -0.4756001619        1.0233806606
 H         -5.3971180000       -1.3540484323        1.6727243100
 H         -6.3329473504       -0.5077155917        0.4256251307
 H         -4.6231912412        2.6835657698       -1.4839665876
 H         -6.2712178913        2.5864263399       -2.1059492174
 H         -6.2714375708        0.1190954896       -1.5807311289
 H         -5.1496094312        0.6426593305       -2.8489175688
 O         -3.0845580509        0.0414695903       -1.8617801895
 C         -1.8818420007       -0.4934359998       -1.4210257901
 O         -0.9545446309       -0.3540671892       -2.2458612202
 O         -3.0082045099       -1.7137824220        1.7930216594
 C         -0.5865591302       -1.7469415307        0.3869704289
 C          0.3611607898       -0.7283682209        0.9737361493
 C          0.7657638500       -0.8054452117        2.3009278592
 C          1.6688651700        0.1075910981        2.8184704896
 C          2.1861128997        1.1147059687        2.0238592301
 C          1.7804418394        1.2036378095        0.6986555103
 C          0.8820428295        0.2838331996        0.1802121499
 H          0.5765771593        0.3565787302       -0.8529618000
 N          2.3187491491        2.2149907700       -0.1265090692
 S          3.9867418691        2.1524364304       -0.2991561496
 O          4.6045134192        2.7413481198        0.8625340207
 O          4.2775752587        2.7915429212       -1.5629116692
 C          4.3550458793        0.4082480405       -0.3653914007
 C          4.9659134596       -0.2071204200        0.7078923188
 C          5.1715037499       -1.5767203600        0.6654640279
 C          4.7583446598       -2.3033669994       -0.4400507225
 C          4.1453692995       -1.6701451388       -1.5103429320
 C          3.9375918892       -0.3013703189       -1.4738361711
 H          3.4649509690        0.2217697716       -2.2901897607
 H          3.8223360694       -2.2354395083       -2.3700846223
 H          4.9153863999       -3.3701965893       -0.4688811432
 H          5.6475433601       -2.0729482204        1.4955719675
 H          5.2684159697        0.3959238895        1.5481124691
 H          1.8816698789        2.2439440805       -1.0374066691
 H          2.8974851696        1.8303651986        2.4034607604
 H          1.9738659302        0.0341376575        3.8510314195
 H          0.3604594903       -1.5832632922        2.9311819688
 H         -0.9343301899       -2.3902283413        1.2062299386
 C          0.1470420898       -2.6091323800       -0.6233227318
 C          1.0764194600       -3.6750863601       -0.1296804826
 C         -0.2263966700       -4.0524966300       -0.7673164226
 H         -0.2147685101       -4.4907168393       -1.7539673929
 H         -1.0158223698       -4.4297833905       -0.1335792527
 H          1.9883622000       -3.8534927297       -0.6771599729
 H          1.1725331003       -3.7991895908        0.9379626173
 H          0.4239425095       -2.0742375694       -1.5222101915
