  62
        -98.94686379
 C          1.2450015083        1.2200193935        0.0884790611
 C          2.0181795835        0.7166090506        1.1603131990
 C          2.6877866040       -0.5687032388        0.9204387668
 C          2.5019125372       -1.1966591973       -0.2553852297
 C          3.1698883126       -2.4806293722       -0.6524782888
 C          4.4951679606       -2.2142135073       -1.3803338821
 C          5.4128757704       -1.2309050140       -0.6540453059
 H          4.9438742634       -0.2443685196       -0.6449596924
 H          6.3290717631       -1.1452337955       -1.2423148764
 C          5.7658917222       -1.6358760573        0.7839629850
 H          6.8364844412       -1.4849525743        0.9379869388
 H          5.5651845092       -2.6977820946        0.9307117105
 C          5.0433233942       -0.8298589106        1.8650152743
 H          5.1672902147        0.2383922670        1.6695472222
 H          5.5210549565       -1.0433927325        2.8250678038
 C          3.5454225192       -1.1199690246        2.0247043734
 H          3.2084033681       -0.6271521123        2.9416702350
 H          3.3892564933       -2.1948735104        2.1369209445
 H          4.2719063223       -1.8062519248       -2.3686470561
 H          5.0130673875       -3.1656747249       -1.5142741415
 H          2.5034767473       -3.0243310164       -1.3230181887
 H          3.3477624254       -3.0828908976        0.2362700089
 O          1.7165189106       -0.7024810962       -1.2442486257
 C          1.0673315773        0.5143698293       -1.1027099859
 O          0.3788481153        0.8479014271       -2.0827608690
 O          2.1351806924        1.3092003145        2.2682391631
 C          0.5218092234        2.5445895999        0.2576765046
 C         -0.9645311901        2.3127595118        0.1470566957
 C         -1.7980450173        3.0208904805       -0.7071707961
 C         -3.1468978324        2.7153966883       -0.7841439171
 C         -3.6938043049        1.7086012933       -0.0103386009
 C         -2.8696225413        1.0035780521        0.8577093157
 C         -1.5211703414        1.3098013240        0.9325301581
 H         -0.8808067388        0.7535569673        1.6065342722
 N         -3.4143945971       -0.0330218416        1.6489779837
 S         -4.0020363172       -1.3575708035        0.8068072268
 O         -5.1747277665       -0.9575885617        0.0724685566
 O         -4.1902976754       -2.3912480930        1.7995530321
 C         -2.6981028636       -1.8165225253       -0.3189875023
 C         -1.7363908544       -2.7083561465        0.1116858949
 C         -0.7010417635       -3.0422306370       -0.7456600038
 C         -0.6404168767       -2.4727855180       -2.0081511433
 C         -1.6059354547       -1.5682972711       -2.4204768509
 C         -2.6465039966       -1.2342424589       -1.5693167414
 H         -3.4173931547       -0.5382313504       -1.8570610865
 H         -1.5412805203       -1.1113338257       -3.3941925660
 H          0.1687471792       -2.7243096903       -2.6754345701
 H          0.0558780501       -3.7402928378       -0.4243412847
 H         -1.8240938496       -3.1354845703        1.0982151973
 H         -2.7746698748       -0.3572736434        2.3613117402
 H         -4.7371112545        1.4449854987       -0.0737941036
 H         -3.7810442506        3.2687068536       -1.4600929363
 H         -1.3914805700        3.8054355603       -1.3235191357
 H          0.7431697792        2.8721640606        1.2842879115
 C          1.0548111202        3.5784250989       -0.7105295019
 C          0.9594016621        5.0372645579       -0.3806043043
 C          2.2884829348        4.3462007928       -0.3453504871
 H          3.0072823375        4.5669936900       -1.1201897654
 H          2.7346072586        4.1416807018        0.6171567478
 H          0.7676156872        5.7362632138       -1.1805516800
 H          0.5042708886        5.3083493455        0.5600032636
 H          0.9416303680        3.2777900629       -1.7457979315
