  62
        -98.93807632
 C         -1.4704213482       -1.7686562875       -0.3741031865
 C         -1.5628097853       -0.5467130923       -1.0821337155
 C         -2.8117697693        0.2260343905       -0.9088057493
 C         -3.7842564007       -0.2468772056       -0.1093617125
 C         -5.1656990470        0.2817285201        0.2204225826
 C         -5.5957369549        1.6732809580       -0.2335130536
 C         -4.9022434838        2.8230266268        0.5004963619
 H         -5.1375517097        3.7566198182       -0.0146096925
 H         -5.3180282802        2.8862921262        1.5093460488
 C         -3.3868531116        2.7004848894        0.6423256225
 H         -3.0338980721        3.5337625671        1.2564581823
 H         -3.1374376810        1.7851657937        1.1831597951
 C         -2.5940712867        2.7288637385       -0.6617925651
 H         -1.5339035827        2.7161088996       -0.3918329649
 H         -2.7961570720        3.6597754244       -1.1966548775
 C         -2.8535819525        1.5516058613       -1.6135538182
 H         -3.7883727789        1.6815628116       -2.1533641708
 H         -2.0465838300        1.5326112049       -2.3522143101
 H         -5.4728869342        1.7684518336       -1.3085068078
 H         -6.6671913403        1.7522094833       -0.0305199108
 H         -5.8647671626       -0.4512374231       -0.1973892371
 H         -5.2640459014        0.2121599428        1.3086543750
 O         -3.6503371872       -1.4351032227        0.5532951585
 C         -2.5047808814       -2.2010420071        0.4568599944
 O         -2.5307346423       -3.2456351095        1.1402205753
 H          0.5128531889       -0.2049120066        0.3913364296
 C          1.0374206895       -0.9868336353        0.9138740858
 C          0.7560910026       -2.3159108690        0.6315017650
 C          1.4254338752       -3.3066746627        1.3416718682
 C          2.3612721229       -2.9707625969        2.3035269002
 C          2.6414528191       -1.6452972413        2.5796182398
 C          1.9643317807       -0.6445696358        1.8885733958
 N          2.1952661382        0.6974625467        2.1982298168
 S          1.8839539196        1.9853569701        1.1869184052
 O          2.4538385640        3.1109505332        1.8987170108
 O          0.4777905473        2.0716277899        0.8924458045
 C          2.8510459741        1.6913429026       -0.2813390993
 C          2.2579040711        1.3065899189       -1.4652685874
 C          3.0652598396        1.1009700877       -2.5750310845
 C          4.4366497980        1.2713521956       -2.4820081798
 C          5.0169189825        1.6544152584       -1.2814357654
 C          4.2180641011        1.8696268889       -0.1718392074
 H          4.6252808897        2.1916095771        0.7728397056
 H          6.0843377563        1.7881167415       -1.2099772054
 H          5.0560517638        1.1063776516       -3.3494982825
 H          2.6083610386        0.8047565724       -3.5055471224
 H          1.1904828114        1.1576878930       -1.5173827131
 H          2.9491402487        0.8796255624        2.8417823460
 H          3.3632322214       -1.3817126187        3.3373250978
 H          2.8747565865       -3.7484743122        2.8480764358
 H          1.1924488654       -4.3439973636        1.1510893142
 C         -0.2576988894       -2.6824173167       -0.4246463980
 H         -0.6429784201       -3.6831782676       -0.1694829060
 C          0.3581904640       -2.7766551743       -1.8150803895
 C          1.6808267761       -2.1745565394       -2.1698577096
 C          1.5446610890       -3.6615634564       -2.0607558592
 H          1.5661387516       -4.2520125204       -2.9641595817
 H          1.9960886450       -4.1428167703       -1.2070795223
 H          1.7804854440       -1.7309961092       -3.1478773187
 H          2.2236946147       -1.6497891339       -1.3988276151
 H         -0.4010959665       -2.7587404744       -2.5900333914
 O         -0.6667225170       -0.1052702845       -1.8453058059
