  62
        -98.93358018
 C         -2.1996317100       -1.1904369870       -0.1754281442
 C         -2.7322028933       -0.0896142998       -0.8907713275
 C         -4.1416325269        0.2473622048       -0.6117895486
 C         -4.8431284946       -0.4903902358        0.2643197644
 C         -6.2897328596       -0.3478111297        0.6669225716
 C         -6.8159012963        1.0701705128        0.9302436970
 C         -5.7846251207        2.0503352938        1.5082756083
 H         -6.2100168789        2.5327648715        2.3903779133
 H         -4.8937305590        1.5093390294        1.8322311369
 C         -5.3852060613        3.1486669080        0.5197120627
 H         -6.2847532206        3.5090950935        0.0158759145
 H         -4.9658387040        3.9885021244        1.0791191790
 C         -4.3520223571        2.7435547480       -0.5309253623
 H         -3.3765832164        2.6059857184       -0.0564144099
 H         -4.2487488750        3.5708872865       -1.2370671190
 C         -4.6734782463        1.4620361500       -1.3171076871
 H         -4.1432606385        1.5127944713       -2.2719247689
 H         -5.7391886690        1.3781699084       -1.5152088265
 H         -7.6525398464        0.9717427861        1.6240768080
 H         -7.2211677556        1.4855694369        0.0085318079
 H         -6.9055889031       -0.8202802389       -0.1039540910
 H         -6.3917457572       -0.9500567339        1.5729962783
 O         -4.2966724484       -1.5566152597        0.9154781047
 C         -2.9788633773       -1.9258635675        0.7188306037
 O         -2.6217462203       -2.9203696100        1.3847733529
 O         -2.0820388864        0.5915596232       -1.7243858486
 C         -0.7708695226       -1.6627300307       -0.3517799442
 C          0.2551404040       -0.8020657860        0.3533319024
 C         -0.0026499092        0.4939659184        0.7778444736
 C          0.9809245098        1.2393516640        1.4058080706
 C          2.2396695356        0.7116102754        1.6225787363
 C          2.5130732927       -0.5823270709        1.1958625662
 C          1.5247633868       -1.3257498919        0.5663645317
 H          1.7429692756       -2.3342013452        0.2471780380
 N          3.7885442548       -1.1268446989        1.4062784981
 S          5.1302891259       -0.1638268387        1.1400397258
 O          6.2007869605       -1.0899062426        0.8467582993
 O          5.3400822919        0.7049827938        2.2709059657
 C          4.7264461194        0.8048204813       -0.3029814385
 C          4.6789830190        2.1811012053       -0.2178164698
 C          4.3330595367        2.9109769478       -1.3438855710
 C          4.0379804492        2.2544547710       -2.5282816334
 C          4.0942229004        0.8707520502       -2.5990800240
 C          4.4414766574        0.1363185068       -1.4773311418
 H          4.5013665129       -0.9397300709       -1.5029702096
 H          3.8648175078        0.3634099094       -3.5223331655
 H          3.7623625510        2.8231673538       -3.4023715625
 H          4.2904655572        3.9870376689       -1.2925947277
 H          4.9133142583        2.6521778238        0.7230082900
 H          3.9141064539       -2.0551674744        1.0310792953
 H          3.0074996339        1.2750444648        2.1269046540
 H          0.7607285223        2.2441107654        1.7331819051
 H         -0.9784557284        0.9232464908        0.6127587785
 H         -0.7336045259       -2.6603602212        0.1093045028
 C         -0.3988432313       -1.7994343008       -1.8198900107
 C          0.4448904242       -2.9447426711       -2.2883744565
 C         -1.0140447790       -2.9004402566       -2.6283444225
 H         -1.3088832022       -2.6912338773       -3.6453522330
 H         -1.6773934370       -3.5815071226       -2.1140372571
 H          1.1604202100       -2.7681542346       -3.0766653566
 H          0.7605148011       -3.6773671466       -1.5605471420
 H         -0.2699893412       -0.8423649447       -2.3092562302
