  62
        -98.92910959
 C          2.2190609611        0.1589554250        0.4238720038
 C          3.3396802966        0.6900810793       -0.2606693752
 C          4.4211924723       -0.2635176482       -0.5783250647
 C          4.2914809986       -1.5566923627       -0.2411625318
 C          5.2410508759       -2.6980799942       -0.5075288361
 C          6.7379728093       -2.4416010748       -0.2829447674
 C          7.0666272573       -1.4534794239        0.8457018303
 H          6.1732912010       -1.2538248569        1.4401267951
 H          7.8046352600       -1.9069625211        1.5100630753
 C          7.6455207013       -0.1324587302        0.3330289747
 H          8.3705880231       -0.3507151915       -0.4540151075
 H          8.1854741029        0.3541038731        1.1489136560
 C          6.6218962097        0.8721320319       -0.1945667961
 H          6.0351377625        1.2741250894        0.6358159549
 H          7.1684638026        1.7095951162       -0.6345604446
 C          5.6349985672        0.3253219391       -1.2387238583
 H          5.2750111401        1.1689381295       -1.8335857830
 H          6.1174268774       -0.3879843418       -1.9021890853
 H          7.1891898101       -2.0854173133       -1.2079257164
 H          7.1932457556       -3.4088608854       -0.0636698484
 H          4.9046184800       -3.5041693689        0.1489466257
 H          5.0860377540       -3.0358092123       -1.5363671892
 O          3.1856022844       -2.0300195689        0.4031839489
 C          2.1414283069       -1.1951522774        0.7553358386
 O          1.2126854344       -1.7690968657        1.3622380224
 H         -1.6266393985        0.5085285062        1.0021447098
 C         -1.3278250343        0.8080071501        0.0087570550
 C          0.0042467264        1.0875603796       -0.2597547066
 C          0.3667315263        1.4497619835       -1.5536966894
 C         -0.5869382758        1.5219079669       -2.5520704189
 C         -1.9134227924        1.2352869999       -2.2823678361
 C         -2.2881184269        0.8811666271       -0.9912815529
 N         -3.6384620260        0.6381578912       -0.6852276045
 S         -4.0277901122       -0.5583354347        0.4414078894
 O         -3.7850047586       -0.0437306751        1.7654709685
 O         -3.3725614102       -1.8000161108        0.0963223916
 C         -5.7844755908       -0.6841861137        0.1625504052
 C         -6.6096400461        0.2825838131        0.7058070438
 C         -7.9732770551        0.2078013192        0.4713815960
 C         -8.4865325154       -0.8264040720       -0.2974864930
 C         -7.6463939047       -1.7902264747       -0.8342732752
 C         -6.2810040820       -1.7203067453       -0.6052163654
 H         -5.5901362690       -2.4508771188       -0.9947210307
 H         -8.0484136027       -2.5948171301       -1.4286269110
 H         -9.5484842032       -0.8831874112       -0.4771659236
 H         -8.6299636589        0.9538064902        0.8889809498
 H         -6.1664659349        1.0611221543        1.3043581141
 H         -4.2111732971        0.5500240127       -1.5143442230
 H         -2.6551325981        1.2888792141       -3.0648659682
 H         -0.2933283007        1.8006515310       -3.5529807452
 H          1.4000703937        1.6785490367       -1.7641844543
 C          1.0257775537        1.0001136313        0.8455619493
 H          0.5595914499        0.4414589568        1.6740730479
 C          1.4219209166        2.3664544365        1.3915563287
 C          1.1177598257        3.6569749374        0.6984701896
 C          0.3652297723        3.2813028251        1.9370238095
 H          0.5663749480        3.8164408778        2.8527984450
 H         -0.6627737347        2.9684000603        1.8251764786
 H          1.8589875836        4.4391326550        0.7563861295
 H          0.5977392177        3.6192168514       -0.2453347058
 H          2.3575912979        2.3248813647        1.9400420375
 O          3.4514103740        1.8919212543       -0.6097058976
