  62
        -98.93881258
 C         -1.9115527470        0.6188165950        0.5065083136
 C         -2.9761872117        1.3610988856       -0.0546864432
 C         -4.3288301344        0.8050515148        0.1207595938
 C         -4.4761909660       -0.3488787777        0.7946547529
 C         -5.7507988282       -1.1077778157        1.0413807852
 C         -5.9653502126       -2.1774387253       -0.0428939645
 C         -6.6944581843       -1.6890460445       -1.2940897178
 H         -6.6621599245       -2.4996766073       -2.0257172675
 H         -7.7437328669       -1.5096624759       -1.0503811382
 C         -6.1181692998       -0.4241039722       -1.9356159451
 H         -5.0284654862       -0.4846985646       -1.9522940329
 H         -6.4560869274       -0.3914543472       -2.9732388136
 C         -6.5597423971        0.8661327142       -1.2288377965
 H         -7.3765702418        0.6356732320       -0.5452112957
 H         -6.9616751862        1.5630956216       -1.9671470025
 C         -5.4500807031        1.6130918404       -0.4739233359
 H         -4.9549843595        2.3130993114       -1.1542722841
 H         -5.9027480978        2.2174583084        0.3192299512
 H         -4.9851513840       -2.5755327970       -0.3181306236
 H         -6.5424490365       -2.9995040920        0.3854226777
 H         -5.6323403846       -1.6084060474        2.0046376238
 H         -6.5980362075       -0.4310359235        1.1001664075
 O         -3.4221727273       -1.0330267760        1.3193045778
 C         -2.1202610311       -0.5791504339        1.1889744331
 O         -1.2651549999       -1.3158120468        1.7154787729
 O         -2.8038599018        2.4397756091       -0.6843091659
 C         -0.4944617339        1.1456506194        0.3566292751
 C          0.3338147667        0.1405877987       -0.4035056615
 C         -0.0493587814       -0.1809146666       -1.7044183744
 C          0.6466926928       -1.1233943302       -2.4342578342
 C          1.7472873555       -1.7597054233       -1.8859795975
 C          2.1397328703       -1.4462536676       -0.5908406695
 C          1.4381590588       -0.4948011164        0.1398884454
 H          1.7528265238       -0.2889728161        1.1484146777
 N          3.2373477833       -2.0978941753       -0.0071361966
 S          4.3828438825       -1.2552691688        0.8680793030
 O          5.4857121046       -2.1813867581        1.0010417927
 O          3.8189443311       -0.7531597894        2.0941455403
 C          4.8528236100        0.0922539159       -0.2013462202
 C          5.7909353193       -0.1503680266       -1.1861830922
 C          6.1210126137        0.8687520887       -2.0642868788
 C          5.5037627271        2.1052804796       -1.9487175781
 C          4.5637294698        2.3321535515       -0.9555747627
 C          4.2315822497        1.3175712052       -0.0713609092
 H          3.5084624475        1.4586933019        0.7145420355
 H          4.0859420403        3.2946410857       -0.8650308851
 H          5.7582052975        2.8981626755       -2.6342720267
 H          6.8550677863        0.6967098155       -2.8349024892
 H          6.2546290115       -1.1223661440       -1.2334579954
 H          3.6776378700       -2.7854968240       -0.6006854235
 H          2.2887438380       -2.5036416250       -2.4504004445
 H          0.3338441075       -1.3654910998       -3.4387345117
 H         -0.9120544141        0.3142907329       -2.1288935935
 H         -0.5872701762        2.0519189497       -0.2594511864
 C          0.0762576216        1.5315693463        1.7037966567
 C          1.1377569173        2.5853751411        1.7934611357
 C         -0.2522583438        2.8789655676        2.2708561403
 H         -0.4291682833        2.9615886623        3.3327541414
 H         -0.8716319802        3.5313248181        1.6727132031
 H          1.9196105238        2.4667560501        2.5293395892
 H          1.4578669898        3.0480108161        0.8719124032
 H          0.1218625593        0.7005354727        2.3990074598
