  62
        -98.94101942
 C         -2.0535144020       -0.7564652527       -0.4005700410
 C         -3.2013998043       -1.2850660975        0.2465651472
 C         -4.4701679554       -0.5874500717        0.0027489874
 C         -4.4777134043        0.5028594797       -0.7848253763
 C         -5.6866769701        1.3424290537       -1.0773578517
 C         -5.8268044250        2.4876618147       -0.0648986793
 C         -5.7098506803        2.0413856571        1.3925560245
 H         -4.6932897741        1.6854200837        1.5755237306
 H         -5.8563869531        2.9262165803        2.0158174404
 C         -6.7105302659        0.9530440281        1.8059236813
 H         -7.1389654472        1.2211729255        2.7739747448
 H         -7.5313465318        0.9129990026        1.0889050333
 C         -6.1028503312       -0.4425454373        1.9590137601
 H         -5.2216394564       -0.3895571333        2.6032432722
 H         -6.8364924843       -1.0793919403        2.4604025255
 C         -5.7046348847       -1.1442731590        0.6544800545
 H         -6.5461001503       -1.1317905155       -0.0414097814
 H         -5.4732362463       -2.1858794066        0.8958841949
 H         -5.0421770064        3.2220261094       -0.2618678040
 H         -6.7923401312        2.9716820340       -0.2230272073
 H         -5.5779077847        1.7653639197       -2.0775856495
 H         -6.5739651592        0.7125152930       -1.0545000622
 O         -3.3588318079        0.9943448885       -1.3713696252
 C         -2.1174603337        0.3919387164       -1.1921493288
 O         -1.1938275298        0.9742764751       -1.7890908139
 O         -3.1653827558       -2.2972911278        0.9955762071
 C         -0.7325090803       -1.4635216581       -0.1476435354
 C          0.3178805041       -0.4693293496        0.2742266742
 C          0.3042047341        0.0232505026        1.5756315291
 C          1.2360966543        0.9569931396        1.9889602496
 C          2.1987153528        1.4224790544        1.1110178001
 C          2.2179371005        0.9398228749       -0.1908539917
 C          1.2928237697       -0.0121901917       -0.5984524730
 H          1.3060488506       -0.3657635064       -1.6174497690
 N          3.1875552251        1.4156275443       -1.0891525006
 S          4.7776542452        1.4715075732       -0.5805118456
 O          4.9840236957        2.6253201458        0.2590082941
 O          5.5677613055        1.4194364385       -1.7903738279
 C          4.9981994931       -0.0191341391        0.3746319410
 C          5.1978353807        0.0539480924        1.7377853702
 C          5.3150192489       -1.1220759853        2.4617192575
 C          5.2273875382       -2.3439808521        1.8135177453
 C          5.0295727466       -2.4008891007        0.4421070066
 C          4.9114278264       -1.2287346263       -0.2862110301
 H          4.7648055930       -1.2351847461       -1.3543988852
 H          4.9640003615       -3.3528643759       -0.0599477696
 H          5.3147017669       -3.2583235337        2.3789865832
 H          5.4709760507       -1.0809617256        3.5276434371
 H          5.2611806272        1.0243129480        2.2021736733
 H          3.1031676825        1.0394980976       -2.0213559750
 H          2.9228232059        2.1637799028        1.4079400592
 H          1.2109909629        1.3309475989        3.0012540061
 H         -0.4550809570       -0.3302031516        2.2596731184
 H         -0.9418440557       -2.1210398353        0.7116290845
 C         -0.2699377672       -2.3713252075       -1.2778157590
 C         -1.2617736039       -3.1691817058       -2.0689433974
 C         -0.4937593351       -2.0641272926       -2.7270386000
 H          0.2826500014       -2.3307941845       -3.4299018743
 H         -1.0125109016       -1.1526956898       -2.9790923660
 H         -1.0194220644       -4.1899326076       -2.3232903784
 H         -2.3092726219       -3.0070969806       -1.8601169894
 H          0.6615105748       -2.8713316097       -1.0291557553
