  62
        -98.93564463
 C         -2.5621396461       -1.3117060164        0.1798197768
 C         -2.6368947082       -0.2669776907       -0.7714387014
 C         -3.8631486653        0.5464696926       -0.7384536857
 C         -4.8230642505        0.2523310461        0.1572927492
 C         -6.0889895269        1.0337487742        0.3672316698
 C         -5.7893584985        2.3166559969        1.1690115408
 C         -6.0205784783        3.6133324068        0.3929238245
 H         -5.5791342511        4.4253630447        0.9745816625
 H         -7.0943862415        3.8008888704        0.3274161608
 C         -5.4507846046        3.6507701551       -1.0284333653
 H         -5.4538544615        4.6961545448       -1.3443293030
 H         -6.1205008368        3.1194886702       -1.7063355285
 C         -4.0333335895        3.0890686713       -1.1989468211
 H         -3.4841406997        3.1358947165       -0.2583392718
 H         -3.4999518428        3.7236952946       -1.9095415705
 C         -3.9752994578        1.6524395856       -1.7511056514
 H         -3.0792010178        1.5530140618       -2.3708565661
 H         -4.8415137702        1.4729309504       -2.3940094278
 H         -4.7520662363        2.2742075478        1.5078590941
 H         -6.4111956047        2.3393282601        2.0652601427
 H         -6.7780688445        0.3935366731        0.9183849652
 H         -6.5339643087        1.2782692505       -0.5947016054
 O         -4.7158815105       -0.7671517601        1.0496521020
 C         -3.5871862987       -1.5683112910        1.0892261468
 O         -3.6146394063       -2.4572410871        1.9645261960
 O         -1.7288239138       -0.0261162950       -1.6092029038
 C         -1.3326465856       -2.2010407935        0.2318820565
 C         -0.1038330168       -1.3608588652        0.4825373564
 C         -0.0944097237       -0.5051201441        1.5814796309
 C          1.0067032338        0.2818436659        1.8558626700
 C          2.1249617059        0.2354762438        1.0409152179
 C          2.1320370750       -0.6221376440       -0.0492751978
 C          1.0243653274       -1.4182113330       -0.3187984201
 H          1.0469502315       -2.0781032200       -1.1720219204
 N          3.2568527287       -0.6688691370       -0.8867042626
 S          4.7871318192       -0.7566993883       -0.2101061121
 O          5.6149369998       -1.3586133983       -1.2324334634
 O          4.7623109123       -1.4241396186        1.0706919068
 C          5.2682838815        0.9453085553       -0.0042518123
 C          5.2283326067        1.7727047276       -1.1094004218
 C          5.6094286781        3.0973286437       -0.9676111968
 C          6.0252618567        3.5688725268        0.2687698157
 C          6.0637868810        2.7245494789        1.3678049902
 C          5.6827517464        1.3985341515        1.2327731399
 H          5.6922526557        0.7073039501        2.0607068750
 H          6.3880510672        3.0928227869        2.3279514674
 H          6.3208178426        4.6005963063        0.3763000389
 H          5.5803061763        3.7570575300       -1.8199637041
 H          4.9024107772        1.3682057357       -2.0531623700
 H          3.1624185936       -1.2950726733       -1.6726360052
 H          2.9852587120        0.8511186129        1.2461799153
 H          0.9954056406        0.9418552938        2.7101802336
 H         -0.9692529995       -0.4664254237        2.2170669728
 H         -1.4723263190       -2.8619763053        1.0998383071
 C         -1.2526765901       -3.0525382427       -1.0178099827
 C         -0.5424997243       -4.3718047026       -0.9860520689
 C         -2.0378158091       -4.3268590470       -1.0751475148
 H         -2.5082318976       -4.6016287633       -2.0072916166
 H         -2.6132423271       -4.5940345683       -0.2006759144
 H          0.0121309097       -4.6827131902       -1.8589392632
 H         -0.0987149961       -4.6784622624       -0.0506932946
 H         -1.1967851874       -2.4601684134       -1.9240035690
