  62
        -98.93824574
 C         -2.5313710460       -0.1280369559       -0.0210882375
 C         -2.3747039645        0.9094705208        0.9230379883
 C         -2.0122539259        2.2416203555        0.4040339555
 C         -1.8631416629        2.3981773381       -0.9246044321
 C         -1.4749130240        3.6396742885       -1.6842053582
 C          0.0270393554        3.9446816348       -1.5909854977
 C          0.6141089488        3.8491267343       -0.1857190969
 H          0.4856961236        2.8293890551        0.1842941691
 H          1.6916639955        4.0176090779       -0.2671171569
 C          0.0595378728        4.8504885874        0.8253295557
 H          0.6463680702        4.7392772337        1.7408904285
 H          0.2196803990        5.8631279052        0.4481182849
 C         -1.4186924090        4.6951875281        1.1921352009
 H         -2.0638521592        5.1198657900        0.4276513699
 H         -1.5898847213        5.2774561418        2.1022826627
 C         -1.8478800773        3.2649672186        1.5017370373
 H         -2.8120866110        3.2919479010        2.0240090348
 H         -1.1445618820        2.8255096205        2.2197733397
 H          0.2018952442        4.9430556843       -1.9968175304
 H          0.5583081278        3.2215137614       -2.2145130991
 H         -1.7269054728        3.4545926446       -2.7309089380
 H         -2.0631681130        4.4873031035       -1.3452113164
 O         -2.0372524121        1.3684149849       -1.8019727445
 C         -2.3315039694        0.0855009714       -1.3838644333
 O         -2.4051456721       -0.7542096511       -2.3024891749
 O         -2.5258518785        0.7337500066        2.1653868218
 C         -2.8066824799       -1.5371556500        0.4666817590
 C         -1.6424374152       -2.4372307873        0.1248433165
 C         -1.7868159589       -3.7736346989       -0.2242808907
 C         -0.6723107919       -4.5450277079       -0.5094485334
 C          0.5992346869       -4.0051865774       -0.4650050736
 C          0.7539355639       -2.6650045461       -0.1218922297
 C         -0.3603486371       -1.9070276225        0.1916387940
 H         -0.2276240810       -0.8750417447        0.4814063320
 N          2.0247888438       -2.0681956150       -0.1317090207
 S          2.2651716973       -0.4975402686        0.4088798645
 O          1.9570045292       -0.3831878108        1.8194004636
 O          1.5828968552        0.4100200675       -0.4773590063
 C          4.0275170402       -0.3739384033        0.1700243725
 C          4.8761915252       -0.6569353211        1.2235787716
 C          6.2455264275       -0.5931423199        1.0184439971
 C          6.7406811263       -0.2505419655       -0.2307669185
 C          5.8768726351        0.0338636762       -1.2780697152
 C          4.5067482268       -0.0281874130       -1.0790474717
 H          3.7957847028        0.1911656957       -1.8588685767
 H          6.2647757040        0.3037562967       -2.2470290548
 H          7.8064426264       -0.2015403586       -0.3885824876
 H          6.9191600259       -0.8098086711        1.8317535800
 H          4.4453034858       -0.9073917264        2.1796450134
 H          2.7858137359       -2.6931339265        0.0887507431
 H          1.4639898818       -4.6050700997       -0.7018415421
 H         -0.7981019773       -5.5832418500       -0.7769400660
 H         -2.7709521710       -4.2102381002       -0.2751996556
 H         -2.8647524270       -1.4603645400        1.5640338252
 C         -4.1328952917       -2.0463514909       -0.0584882193
 C         -4.9645088844       -2.9859752393        0.7613753921
 C         -5.3970669936       -1.5625951615        0.5846068600
 H         -6.2484603077       -1.3527457950       -0.0450063245
 H         -5.2969043778       -0.8882629073        1.4228679923
 H         -5.5245315245       -3.7559386033        0.2524649142
 H         -4.5818785611       -3.2802907563        1.7271095588
 H         -4.1320921602       -2.1650117193       -1.1360723615
