  62
        -98.93793127
 C          1.2251283797        1.4473023301       -0.3442647093
 C          2.4405471596        1.5060694699        0.3778723510
 C          3.3369130598        0.3403317201        0.2704195305
 C          2.9600780801       -0.7007263495       -0.4936646300
 C          3.6867144604       -1.9978143093       -0.7470042606
 C          5.1952219804       -1.9012406689       -1.0234682502
 C          6.0602812203       -2.4445792693        0.1152355396
 H          5.5857482504       -3.3427979796        0.5158295191
 H          7.0283720005       -2.7431604189       -0.2932325003
 C          6.3246276200       -1.4627761298        1.2553834202
 H          7.0129654699       -0.6871396795        0.9123905007
 H          6.8280933899       -2.0118887901        2.0546830400
 C          5.0819791197       -0.7835119103        1.8344281403
 H          5.3242535695       -0.4528419508        2.8467560905
 H          4.2626204198       -1.4960969105        1.9211364098
 C          4.6264945096        0.4482818900        1.0376890208
 H          4.4713023394        1.2892119496        1.7208136712
 H          5.4191025997        0.7625781805        0.3522854611
 H          5.4083176607       -2.4907415584       -1.9167000605
 H          5.4668678903       -0.8706035087       -1.2462757097
 H          3.5088414704       -2.6669208897        0.0985284091
 H          3.1827130607       -2.4397695590       -1.6091841209
 O          1.7743055403       -0.7175110694       -1.1647107103
 C          0.8783204300        0.3353113604       -1.1116471099
 O         -0.1531845698        0.1583782405       -1.7854688202
 O          2.7663353792        2.4945990096        1.0892060015
 C          0.2588053995        2.6144836098       -0.2200277489
 C         -0.9317649606        2.1186897092        0.5605302306
 C         -0.8649285808        2.0702538385        1.9501594506
 C         -1.8974763609        1.5238817280        2.6896803002
 C         -3.0108755007        0.9960858981        2.0581064197
 C         -3.0789508304        1.0286598387        0.6719327597
 C         -2.0570772004        1.6075110693       -0.0677154998
 H         -2.1236723702        1.6179230498       -1.1436977698
 N         -4.1893396802        0.4519399689        0.0162849892
 S         -4.3930125299       -1.1981940513        0.2255256884
 O         -5.3844018197       -1.5888489410       -0.7512434520
 O         -4.7282216401       -1.4507698320        1.6048152382
 C         -2.8217776797       -1.9472177308       -0.1631485517
 C         -1.8386036999       -1.9919052311        0.8043937584
 C         -0.6085890397       -2.5401818207        0.4809771184
 C         -0.3840619694       -3.0337450300       -0.7939487518
 C         -1.3809882292       -2.9790539197       -1.7541761820
 C         -2.6104926394       -2.4254898301       -1.4399025119
 H         -3.4123867593       -2.3631570799       -2.1583050420
 H         -1.1989847190       -3.3546963692       -2.7482955621
 H          0.5778504207       -3.4533750697       -1.0429735118
 H          0.1741177302       -2.5706197509        1.2231377085
 H         -2.0476398701       -1.6034392016        1.7880677986
 H         -4.1995221600        0.6529141393       -0.9745298907
 H         -3.8124789807        0.5377970076        2.6144503593
 H         -1.8336262111        1.4999844674        3.7671512902
 H          0.0176184190        2.4534023884        2.4431117210
 H          0.7818119792        3.3663921696        0.3851714916
 C         -0.0909512904        3.2225476304       -1.5613028487
 C         -0.7696606207        4.5581893803       -1.6037384181
 C          0.6589428594        4.4290194608       -2.0369625079
 H          0.8890511196        4.5101196313       -3.0887926678
 H          1.4274471592        4.8274321806       -1.3909837676
 H         -1.5225260906        4.7320143605       -2.3573408282
 H         -0.9720486809        5.0431237498       -0.6607241779
 H         -0.3671281101        2.4893487507       -2.3090013191
