  62
        -98.94892851
 C          2.2400784805        0.8353891828        0.0790131179
 C          1.5889450660        0.1064193058       -0.9447914012
 C          1.9738243757       -1.3049380489       -1.0744478697
 C          2.8657116922       -1.8253391584       -0.2125692555
 C          3.3541387094       -3.2447273932       -0.2322211459
 C          2.5104266529       -4.1567510093        0.6673797256
 C          1.0036563172       -4.0366930556        0.4383689667
 H          0.5171187525       -4.7691214131        1.0874493086
 H          0.6605486961       -3.0519327885        0.7644688183
 C          0.5572674429       -4.2645783274       -1.0124652253
 H          1.3358468028       -4.7926913904       -1.5653371198
 H         -0.3286649885       -4.9031635085       -1.0055446844
 C          0.1761820334       -2.9822864182       -1.7549307237
 H         -0.4900690452       -2.3915786566       -1.1209914097
 H         -0.3790476309       -3.2586338763       -2.6555626079
 C          1.3478566793       -2.0925502080       -2.1906350922
 H          2.0990160430       -2.6975624999       -2.7038662347
 H          0.9601394511       -1.3527480149       -2.8971598177
 H          2.8240050982       -5.1891955239        0.4985054644
 H          2.7177204374       -3.9053511804        1.7103417588
 H          3.3328791588       -3.6113928539       -1.2569168584
 H          4.3856410221       -3.2538006791        0.1256097769
 O          3.4227531994       -1.1097460444        0.7995063704
 C          3.1143687927        0.2286972796        0.9778552005
 O          3.6767685676        0.7623595430        1.9582390345
 O          0.7439261865        0.6154932354       -1.7265282740
 C          1.9374808342        2.3141455104        0.2627931909
 C          0.4481944001        2.4917638686        0.4195564908
 C         -0.3112128447        3.3915749050       -0.3167782468
 C         -1.6893014016        3.4232344758       -0.1851035218
 C         -2.3386050309        2.5469853499        0.6657829389
 C         -1.5833713299        1.6665884113        1.4278006692
 C         -0.2042907866        1.6627104571        1.3241129813
 H          0.3744375726        0.9590362950        1.9110584632
 N         -2.2602184574        0.6984304219        2.2306808063
 S         -2.2738989716       -0.7877194378        1.4202565901
 O         -3.0201750144       -1.6923323549        2.2701183039
 O         -0.9324372581       -1.2205799390        1.0930412496
 C         -3.2032558220       -0.4052122556       -0.0436373853
 C         -4.5810095939       -0.4836164605        0.0245233563
 C         -5.3276372156       -0.1406226991       -1.0905022106
 C         -4.6854814073        0.2784216759       -2.2464842621
 C         -3.3022791970        0.3539356885       -2.2959167329
 C         -2.5467457095        0.0115388587       -1.1846686821
 H         -1.4686322557        0.0719565128       -1.1985231344
 H         -2.7974596192        0.6834007324       -3.1897357694
 H         -5.2658712497        0.5486354640       -3.1146296513
 H         -6.4036277749       -0.1979679982       -1.0546235561
 H         -5.0309002247       -0.8170527816        0.9452444725
 H         -1.8088392266        0.5532516906        3.1250184401
 H         -3.4132662483        2.5295092809        0.7457798265
 H         -2.2656450934        4.1206421914       -0.7728501490
 H          0.1761110396        4.0550598692       -1.0122831443
 H          2.4294482460        2.6141795438        1.1995611911
 C          2.5269723807        3.1122651482       -0.8813369470
 C          2.9252322385        4.5425494354       -0.6780245512
 C          3.9767587350        3.4860940041       -0.8317311252
 H          4.5491477765        3.4537049487       -1.7465135729
 H          4.5357151929        3.1841533723        0.0423385128
 H          2.7801141333        5.2391551352       -1.4896933295
 H          2.7763594174        4.9685406540        0.3025904309
 H          2.1183020010        2.8234633611       -1.8428205879
