  62
        -98.94359264
 C          2.0128853995        1.3582138422       -0.1737223688
 C          1.8996002941        0.0258238651       -0.6387609781
 C          3.1614368461       -0.7209431359       -0.7468316336
 C          4.3172469081       -0.1172430948       -0.4152274921
 C          5.6621786842       -0.7831124049       -0.4161362893
 C          5.9738150571       -1.4051657073        0.9525278651
 C          4.8428991240       -2.2677496383        1.5134125737
 H          5.1871638807       -2.6744110478        2.4668974208
 H          3.9812762396       -1.6315663822        1.7291851191
 C          4.4049152133       -3.4178137138        0.5957294818
 H          5.1794657101       -3.6142382765       -0.1465983430
 H          4.2955097400       -4.3229001240        1.1970065696
 C          3.0690118911       -3.1895252841       -0.1138467333
 H          2.3093808395       -2.9024999357        0.6180631997
 H          2.7539560193       -4.1379627111       -0.5571320827
 C          3.0825447299       -2.1407224348       -1.2328130652
 H          3.8947327261       -2.3566359192       -1.9297354177
 H          2.1352246459       -2.2197875808       -1.7736705181
 H          6.1725672407       -0.5986009518        1.6622814762
 H          6.8802294876       -2.0062810224        0.8602915914
 H          6.4192602313       -0.0307481699       -0.6435687152
 H          5.6828111359       -1.5497093063       -1.1882774428
 O          4.3862654394        1.1694808957        0.0133124185
 C          3.2394606536        1.9352038292        0.1521767446
 O          3.4395210743        3.0940167004        0.5705839556
 O          0.8064369729       -0.5131871781       -0.9455156429
 C          0.7665145334        2.2101721900       -0.0229539613
 C         -0.2264773497        1.5426573789        0.8978022771
 C          0.2284200105        0.9220365352        2.0580252174
 C         -0.6505168873        0.2951961273        2.9205498922
 C         -2.0089234690        0.2853364600        2.6554546503
 C         -2.4762425198        0.9134997701        1.5097579622
 C         -1.5892873380        1.5385732482        0.6404605574
 H         -1.9718408705        2.0201804193       -0.2462475395
 N         -3.8626595809        0.9175593641        1.2468009480
 S         -4.6048593556       -0.5451478232        0.9057898308
 O         -6.0051296436       -0.2374176657        0.7241711859
 O         -4.2842765956       -1.4865080552        1.9471643165
 C         -3.9008359545       -1.0636945925       -0.6489551175
 C         -4.6660587961       -0.9797403935       -1.7959317951
 C         -4.0931214226       -1.3227148373       -3.0097249565
 C         -2.7657946714       -1.7226784806       -3.0577420742
 C         -2.0091926546       -1.7957578382       -1.8983383432
 C         -2.5811899262       -1.4683070291       -0.6794516189
 H         -2.0093889268       -1.5154909911        0.2330686118
 H         -0.9679354104       -2.0724674410       -1.9271693983
 H         -2.3153179345       -1.9768415548       -4.0045725740
 H         -4.6783309547       -1.2693270601       -3.9138700962
 H         -5.6901878335       -0.6533663271       -1.7117798306
 H         -4.1338825654        1.5917995632        0.5441834210
 H         -2.7068737530       -0.2130638555        3.3077839816
 H         -0.2763672423       -0.1879232788        3.8109127985
 H          1.2887820101        0.9309191909        2.2728031555
 H          1.0933645759        3.1473648320        0.4516366697
 C          0.1958566905        2.5291502367       -1.3905073948
 C         -0.5114148121        3.8272107451       -1.6372536648
 C          0.8522827125        3.5950273483       -2.2134334467
 H          0.9457076045        3.4420876655       -3.2780261859
 H          1.6914479235        4.1133065983       -1.7720988799
 H         -1.3544156107        3.8365196536       -2.3121685594
 H         -0.5990212246        4.5165083192       -0.8107819978
 H         -0.1582561494        1.6445046664       -1.9078629215
