  62
        -98.93570287
 C         -2.2606963306       -1.2837041011        0.2760286389
 C         -2.5494327604       -0.3772113297       -0.7692090800
 C         -3.5047711003        0.7047634300       -0.4581128387
 C         -4.0415275705        0.7690113085        0.7736133213
 C         -5.0334041104        1.7645839879        1.3200209924
 C         -6.2233144003        2.1120566891        0.4118488027
 C         -6.1674879201        3.5359425898       -0.1437723155
 H         -7.1815906101        3.8513630102       -0.3988971252
 H         -5.8077608802        4.2021849288        0.6431363854
 C         -5.3018973900        3.7118006613       -1.3902662651
 H         -5.8011682599        3.2490980024       -2.2442659658
 H         -5.2326338898        4.7826051416       -1.5956549438
 C         -3.8862436700        3.1390228611       -1.2924791357
 H         -3.2655243499        3.6594125320       -2.0249495649
 H         -3.4575471301        3.3427446898       -0.3119098854
 C         -3.8066883601        1.6364092215       -1.6001866876
 H         -4.7290377501        1.3066269522       -2.0872998781
 H         -3.0045145900        1.4515478423       -2.3217342977
 H         -7.1341015904        2.0170171384        1.0051850025
 H         -6.2913602803        1.3905879001       -0.4009469182
 H         -5.3934422106        1.3233635967        2.2522425918
 H         -4.4973692204        2.6764236875        1.5946713737
 O         -3.7089528607       -0.1140506428        1.7606014702
 C         -2.8168983407       -1.1481843826        1.5456368390
 O         -2.6004676209       -1.8620512739        2.5471572481
 H          0.0291556994       -0.3949524723        1.1171169903
 C          0.5953389495       -0.8353345813        0.3040012098
 C          0.0520135994       -1.9085188104       -0.3919191216
 C          0.7971868495       -2.4738031892       -1.4181382022
 C          2.0404646696       -1.9611426588       -1.7469116114
 C          2.5685749596       -0.8827024498       -1.0620628600
 C          1.8376834395       -0.3174570810       -0.0251762594
 N          2.3705495395        0.7817313680        0.6783119921
 S          3.8465686894        0.5381175869        1.4489945420
 O          4.0191865293       -0.8458752236        1.8273168402
 O          3.8803182494        1.5074382956        2.5226718732
 C          5.0523898196        0.9892310484        0.2199201327
 C          5.9877014896        0.0632862189       -0.1986113984
 C          6.9218367597        0.4391224200       -1.1514166078
 C          6.9039125599        1.7267169806       -1.6652883661
 C          5.9588779199        2.6452671002       -1.2326531551
 C          5.0230612298        2.2765759690       -0.2795593557
 H          4.2751562498        2.9596801686        0.0871279351
 H          5.9483036401        3.6456200507       -1.6344217938
 H          7.6312069700        2.0165904815       -2.4070787057
 H          7.6574546697       -0.2731442596       -1.4887741786
 H          5.9589246195       -0.9273552417        0.2260292904
 H          1.7138599095        1.1935579873        1.3261599725
 H          3.5321028797       -0.4752595595       -1.3211746894
 H          2.6045056097       -2.4066281179       -2.5519769919
 H          0.4028522695       -3.3149812184       -1.9639879533
 C         -1.2979539306       -2.4315968708        0.0372253076
 H         -1.1706905508       -2.9284737421        1.0110550669
 C         -1.9020272006       -3.4207233495       -0.9384221838
 C         -1.5649766707       -4.8777346297       -0.8464311556
 C         -2.9227931208       -4.3953116601       -0.4356630751
 H         -3.7680641007       -4.6286898592       -1.0654148855
 H         -3.1598974809       -4.3635598314        0.6182535749
 H         -1.4811298107       -5.4468077385       -1.7599761263
 H         -0.8813528709       -5.1852415207       -0.0694040559
 H         -2.0619119005       -2.9897939183       -1.9199650832
 O         -2.0331087902       -0.4609994183       -1.9137161300
