  62
        -98.94759402
 C          2.5270417730       -0.2966106365       -0.0106848776
 C          2.2093738538       -1.3040972342        0.9299742663
 C          1.5671381567       -2.5099100781        0.3931714288
 C          1.3390305269       -2.5986784639       -0.9298275705
 C          0.6947809401       -3.7707471287       -1.6126020099
 C         -0.8212008196       -3.5878181264       -1.7555883290
 C         -1.5281724773       -3.1926383759       -0.4588617132
 H         -1.2367061680       -2.1746063018       -0.1892747643
 H         -2.5999254891       -3.1647344334       -0.6716807957
 C         -1.2693729316       -4.1283231534        0.7296306207
 H         -0.9096028578       -5.0944289393        0.3723641994
 H         -2.2163641634       -4.3018469452        1.2448218893
 C         -0.2949821874       -3.5717168914        1.7700290942
 H         -0.5790061938       -2.5440827458        2.0151010883
 H         -0.3921997649       -4.1674002180        2.6820154245
 C          1.1867761631       -3.5854979216        1.3708820215
 H          1.7778901730       -3.3924645826        2.2711320147
 H          1.4568081202       -4.5721045554        0.9873432882
 H         -1.2444944668       -4.5204055598       -2.1348079701
 H         -1.0069311841       -2.8003759687       -2.4897321693
 H          1.1330392842       -3.8651933770       -2.6080698518
 H          0.9099489829       -4.6739855564       -1.0442976427
 O          1.6696268029       -1.6160924120       -1.8060902089
 C          2.2207126732       -0.4232403533       -1.3656028120
 O          2.4145499151        0.4164576417       -2.2663884378
 H          0.5096101188        0.8716876179        1.0149197144
 C          0.7545620790        1.8219733355        0.5629658065
 C          2.0745048460        2.1047439573        0.2374691842
 C          2.3675291998        3.3437918092       -0.3162956949
 C          1.3525613420        4.2515935478       -0.5697727896
 C          0.0324029898        3.9387409560       -0.3018515311
 C         -0.2672074976        2.7077893875        0.2710212587
 N         -1.5902673437        2.3262944679        0.5630422328
 S         -1.9571591260        0.6956517094        0.2781683196
 O         -1.6315935990       -0.0616516256        1.4609822722
 O         -1.3532509016        0.2634694621       -0.9608784068
 C         -3.7297310509        0.7835014840        0.1037916930
 C         -4.5100991983        0.8274617226        1.2437129838
 C         -5.8854794131        0.9326634821        1.1097864147
 C         -6.4542292676        0.9921305551       -0.1539974517
 C         -5.6584523994        0.9431461582       -1.2887587085
 C         -4.2819981782        0.8395806938       -1.1617512504
 H         -3.6225500073        0.7894184832       -2.0136134824
 H         -6.1028181559        0.9845037038       -2.2700417557
 H         -7.5248507741        1.0734757535       -0.2556209564
 H         -6.5073871695        0.9675149612        1.9895962565
 H         -4.0227295062        0.7680744762        2.2027708313
 H         -2.2748539912        2.9383554760        0.1392143455
 H         -0.7586000679        4.6353730838       -0.5347832246
 H          1.5921817255        5.2092516597       -1.0067522521
 H          3.3862706986        3.5925574209       -0.5650114938
 C          3.0956237374        1.0212396618        0.4881925125
 H          3.2083349874        0.8981170683        1.5762727371
 C          4.4520415485        1.3078270339       -0.1175868688
 C          5.4488005504        2.1426584161        0.6282653245
 C          5.6652114590        0.6671108473        0.4849203216
 H          6.4450714713        0.3192843118       -0.1755420358
 H          5.5143816574        0.0393966886        1.3511214580
 H          6.0858529145        2.8090245020        0.0666310530
 H          5.1586137593        2.5192625856        1.5974481852
 H          4.4141520676        1.3925178898       -1.1975920171
 O          2.4602976167       -1.2008057982        2.1630949998
