  62
        -98.93571632
 C         -2.6064734698       -0.0031724406        0.5282190887
 C         -2.0678369494        0.4030819186       -0.7159573214
 C         -1.6333619393        1.8115108785       -0.8249000322
 C         -1.7834736096        2.6256469592        0.2333793272
 C         -1.4005073996        4.0745476693        0.3779423464
 C          0.0402877702        4.2199494796        0.8971021668
 C          1.1019188406        4.3260901088       -0.1943087630
 H          0.9633817208        5.2599040085       -0.7438980636
 H          2.0748520204        4.3713309191        0.3001350873
 C          1.1133344709        3.1624636682       -1.1867309922
 H          1.0197642806        2.2170526185       -0.6474685616
 H          2.0876252810        3.1475400378       -1.6801609519
 C          0.0161221412        3.2612091475       -2.2566662926
 H          0.4678405715        3.1597508569       -3.2462756024
 H         -0.4446050388        4.2480843676       -2.2244400034
 C         -1.0563718589        2.1753490976       -2.1669585923
 H         -1.8865150486        2.4348778172       -2.8352450227
 H         -0.6366568188        1.2374451374       -2.5478381015
 H          0.0998587901        5.1150743100        1.5199133562
 H          0.2616542500        3.3584349200        1.5330455774
 H         -1.5381909193        4.6102506787       -0.5564309540
 H         -2.0834200898        4.4915964098        1.1214225559
 O         -2.3110746900        2.1915233800        1.4148641973
 C         -2.6893746801        0.8783710302        1.6059711781
 O         -3.0877311305        0.6202560209        2.7611946881
 O         -1.9502822391       -0.3668259920       -1.7056268209
 C         -2.9767118800       -1.4517073504        0.8048124695
 C         -1.8758755598       -2.3458571607        0.2856977604
 C         -2.0843659096       -3.4827878112       -0.4827347689
 C         -1.0065042995       -4.2189645316       -0.9453410081
 C          0.2913045604       -3.8226307615       -0.6815203279
 C          0.5095851402       -2.6880792610        0.0915143414
 C         -0.5702161499       -1.9886291906        0.5993721406
 H         -0.3916925601       -1.1104316302        1.2029211701
 N          1.8150069801       -2.2248598208        0.3722859515
 S          2.0855345203       -0.5898488811        0.0072748806
 O          1.4564593700        0.2338163896        1.0091074498
 O          1.7333825408       -0.3310970920       -1.3693507797
 C          3.8565249403       -0.5149627710        0.2050509311
 C          4.3748828498       -0.5176687802        1.4859133913
 C          5.7503696898       -0.4913788601        1.6519460217
 C          6.5799334602       -0.4633489909        0.5404316819
 C          6.0450245206       -0.4587468317       -0.7387954482
 C          4.6698147106       -0.4867174318       -0.9114860887
 H          4.2070081909       -0.4779015124       -1.8852322488
 H          6.6918618708       -0.4338155823       -1.6008474180
 H          7.6501091301       -0.4423123709        0.6726126723
 H          6.1694321295       -0.4924368595        2.6452196718
 H          3.6902245796       -0.5312228196        2.3179905010
 H          2.5125669003       -2.7801948512       -0.1087976879
 H          1.1288970705       -4.3773817317       -1.0776389073
 H         -1.1810756394       -5.0995871420       -1.5450688376
 H         -3.0866401196       -3.7800079014       -0.7445352490
 H         -2.9817050003       -1.5323223496        1.9055247995
 C         -4.3660999098       -1.8565727006        0.3352927993
 C         -5.4330314497       -0.8305047107        0.0994144783
 C         -4.8467308094       -1.5809048115       -1.0565446810
 H         -5.4580036092       -2.3258214818       -1.5448530207
 H         -4.1709928091       -1.0631866220       -1.7184796312
 H         -6.4414999798       -1.0615185005        0.4085030681
 H         -5.1640758697        0.2085083094        0.2255234377
 H         -4.6935806600       -2.7866467303        0.7896549398
