  62
        -98.94007804
 C          0.6504226997        1.7041315242       -0.5042003023
 C          1.7835210930        1.9524377380        0.3124364782
 C          2.9578354622        1.0894858097        0.1142685664
 C          2.9124082382        0.1220670117       -0.8202702438
 C          3.9790335496       -0.8414501323       -1.2952433356
 C          5.1867153918       -1.1644139203       -0.4174594920
 C          4.8632262249       -1.8570511486        0.9050570672
 H          5.7948602128       -1.9640486322        1.4653663491
 H          4.4872076243       -2.8608979655        0.6944094689
 C          3.8348441710       -1.1499481884        1.7844526918
 H          3.7319862381       -1.7272378483        2.7071547299
 H          2.8616381837       -1.1546773698        1.2896462009
 C          4.1851020503        0.2855460961        2.1745399560
 H          5.1829002583        0.3151315017        2.6165760036
 H          3.4708066285        0.5997754962        2.9401548282
 C          4.1209267884        1.3193250234        1.0345742352
 H          5.0521919463        1.3518567297        0.4735624331
 H          3.9719446912        2.3069498319        1.4802641125
 H          5.7712919596       -0.2671334377       -0.2360110641
 H          5.8195314547       -1.8404370440       -0.9991918227
 H          4.3466433069       -0.4358734047       -2.2447186455
 H          3.4512850585       -1.7671628257       -1.5388185393
 O          1.8018671917       -0.0830361904       -1.5824169661
 C          0.6479601919        0.6734372696       -1.4426800991
 O         -0.2674416944        0.3157758744       -2.2099753865
 O          1.8184673168        2.8792596860        1.1663643198
 C         -0.5476025300        2.6104256688       -0.2859820158
 C         -1.5316627063        2.0123520817        0.6916072077
 C         -1.9839892577        2.7465445134        1.7815093403
 C         -2.9008219624        2.2019572252        2.6628721582
 C         -3.3771308799        0.9176443278        2.4762488577
 C         -2.9232151033        0.1704205349        1.3932632873
 C         -2.0092967034        0.7223853516        0.5071889442
 H         -1.6798451120        0.1485523267       -0.3440571581
 N         -3.3477351215       -1.1487538287        1.2228596943
 S         -3.1606870950       -2.0178735317       -0.1830929952
 O         -3.5837846256       -1.2715610800       -1.3439442595
 O         -3.9031031053       -3.2367472453        0.0722686848
 C         -1.4299404172       -2.4245970533       -0.2520045588
 C         -0.8292963464       -2.5845723989       -1.4835062426
 C          0.4946061253       -2.9913550607       -1.5353948439
 C          1.1884317659       -3.2320054859       -0.3607935234
 C          0.5733658882       -3.0582991603        0.8693620535
 C         -0.7501986846       -2.6547842573        0.9277298530
 H         -1.2572906410       -2.5125115480        1.8677872185
 H          1.1209450589       -3.2379385708        1.7809438088
 H          2.2165310866       -3.5569514517       -0.4014337554
 H          0.9762607592       -3.1097860292       -2.4930093297
 H         -1.3969123154       -2.3692921452       -2.3744959263
 H         -4.0974871903       -1.4713099154        1.8137965928
 H         -4.0902424345        0.4895624528        3.1636750554
 H         -3.2476875241        2.7820791530        3.5043605031
 H         -1.6046105328        3.7448904720        1.9407828075
 H         -0.1392406428        3.5231234000        0.1703342463
 C         -1.2694455066        2.9965432517       -1.5624148165
 C         -2.0281587155        4.2875332642       -1.6093719395
 C         -0.7534067566        4.1380548663       -2.3835226321
 H         -0.8037900203        4.0613211602       -3.4591882423
 H          0.1247299665        4.6543796368       -2.0234721331
 H         -2.9603110525        4.3150767248       -2.1525695963
 H         -2.0139791277        4.9113742422       -0.7285597765
 H         -1.6857536694        2.1489647865       -2.0922278506
