  62
        -98.93944374
 C         -2.2360355695       -0.8726529500       -0.0338812306
 C         -3.2442609894       -0.6736606411        0.9404294597
 C         -4.1062158995        0.5091493390        0.7762092309
 C         -3.8899221196        1.3424966901       -0.2585893682
 C         -4.5618946597        2.6420103205       -0.6508298368
 C         -5.8840065097        3.0619918197       -0.0138187563
 C         -7.0802611597        2.1878627500       -0.3893946171
 H         -7.3166821198        2.3583906311       -1.4427335469
 H         -7.9396569997        2.5127664694        0.2010374033
 C         -6.8849021996        0.6858260498       -0.1991505087
 H         -6.0860634796        0.3338830206       -0.8551439491
 H         -7.8046301896        0.1865925101       -0.5158789492
 C         -6.5845688295        0.2420090484        1.2309940808
 H         -6.6252766194       -0.8502853317        1.2518389697
 H         -7.3586433995        0.6181008376        1.9026273812
 C         -5.2114714795        0.6643128179        1.7811982412
 H         -4.9623718494        0.0001117470        2.6138228705
 H         -5.2362611195        1.6792599075        2.1705407422
 H         -6.0914625398        4.0751300801       -0.3689515252
 H         -5.7786937097        3.1232313486        1.0653043538
 H         -4.6862686798        2.5969390016       -1.7375821668
 H         -3.8201029398        3.4257483503       -0.4599529560
 O         -2.8918434097        1.1195889711       -1.1632745785
 C         -2.0489164796        0.0230210411       -1.0847039297
 O         -1.2062460396       -0.0309367879       -2.0020113498
 O         -3.4159645493       -1.4520039721        1.9158977589
 C         -1.3161328694       -2.0727988201        0.1229375881
 C          0.0507413106       -1.5594039604        0.5016332085
 C          0.3156177307       -1.2443193918        1.8317071089
 C          1.5312297006       -0.6991315121        2.1990751894
 C          2.5049498306       -0.4468812010        1.2478193096
 C          2.2438312005       -0.7424023797       -0.0827451007
 C          1.0308409805       -1.3122436294       -0.4466528413
 H          0.8370164505       -1.5229504183       -1.4864355615
 N          3.2207323704       -0.4761785286       -1.0589257505
 S          3.9387157603        1.0419150715       -1.0533975390
 O          3.0641222203        2.0519327608       -0.5030222679
 O          4.3927176203        1.2515753329       -2.4112757388
 C          5.3618602304        0.8282687205       -0.0021323593
 C          5.5902285704        1.7125320994        1.0339241116
 C          6.7123676005        1.5386123186        1.8293327814
 C          7.5822185605        0.4893988590        1.5752720602
 C          7.3398284205       -0.3889038400        0.5294626293
 C          6.2209441805       -0.2196550492       -0.2703004204
 H          5.9979570905       -0.8777828384       -1.0932600111
 H          8.0183555006       -1.2038706597        0.3352301385
 H          8.4540434806        0.3555328084        2.1960246101
 H          6.9019398405        2.2210308178        2.6422866121
 H          4.8820979504        2.5093834592        1.1976984225
 H          2.9208301004       -0.7153277876       -1.9937011507
 H          3.4503684606       -0.0092444813        1.5241225300
 H          1.7232570007       -0.4634743432        3.2347996696
 H         -0.4534864393       -1.4182405726        2.5712446187
 H         -1.7180857393       -2.6362806810        0.9754679175
 C         -1.3199215894       -2.9674620488       -1.0983911528
 C         -0.7376303693       -4.3447730489       -0.9963423543
 C         -2.2194323393       -4.1651960389       -1.1266501340
 H         -2.6923690293       -4.4306898879       -2.0603368743
 H         -2.8354842092       -4.3479331798       -0.2585211942
 H         -0.1906237893       -4.7379645880       -1.8395158048
 H         -0.3460267792       -4.6473415999       -0.0370524547
 H         -1.1895440395       -2.4281272679       -2.0287417723
