  62
        -98.94326101
 C          1.3069095700        1.0167919594       -0.0134457703
 C          1.7917159898       -0.0821615103        0.7361434103
 C          2.7469943294       -0.9595472810        0.0463332407
 C          3.0834679192       -0.6912155620       -1.2286531796
 C          4.0843279887       -1.4698150128       -2.0315255493
 C          5.4947968390       -0.8825018632       -1.8823165600
 C          5.9119470994       -0.6372076324       -0.4322289602
 H          6.9342241195       -0.2532442228       -0.4489988807
 H          5.2812639797        0.1475005081       -0.0082127606
 C          5.8469467991       -1.8803421818        0.4661070506
 H          5.8193372487       -2.7807499222       -0.1487898188
 H          6.7580619293       -1.9265275018        1.0663736304
 C          4.6687681594       -1.8955573908        1.4415836808
 H          4.8389634792       -2.6954796204        2.1670335513
 H          4.6398586698       -0.9531181705        1.9940399003
 C          3.2880536191       -2.1312037807        0.8164643913
 H          3.3160154787       -3.0252757411        0.1900913519
 H          2.5801992993       -2.3029782600        1.6326183016
 H          6.2037020686       -1.5634765437       -2.3570061397
 H          5.5310489092        0.0705490164       -2.4152795406
 H          4.0762181284       -2.5082738026       -1.7055353586
 H          3.7919230785       -1.4262770134       -3.0822019293
 O          2.5749055294        0.3573924978       -1.9259181601
 C          1.6751221798        1.2390347484       -1.3400910005
 O          1.2825290400        2.1486163681       -2.0946810910
 O          1.4376317500       -0.3193337394        1.9206211406
 C          0.3176316405        1.9576956902        0.6424243394
 C         -1.0268933297        1.9265681902       -0.0430456203
 C         -1.9010215693        3.0076219105       -0.0122391508
 C         -3.1586447294        2.9184198606       -0.5840165805
 C         -3.5774287400        1.7512635603       -1.1981961496
 C         -2.7091573204        0.6712164900       -1.2426847591
 C         -1.4528756002        0.7602862799       -0.6635624295
 H         -0.7910628505       -0.0969777403       -0.6929637591
 N         -3.1477683809       -0.5453256402       -1.8284976483
 S         -4.0827187210       -1.4598044292       -0.7750721175
 O         -4.2394349916       -2.7547118996       -1.3979206266
 O         -5.2922593107       -0.7305314486       -0.4946087777
 C         -3.0818017207       -1.5908180686        0.6944696824
 C         -2.1641776410       -2.6185220689        0.7839912228
 C         -1.2987263108       -2.6524983185        1.8651137926
 C         -1.3533120403       -1.6539883079        2.8250196520
 C         -2.2798676199       -0.6285333476        2.7194141516
 C         -3.1523865002       -0.5910688980        1.6438162018
 H         -3.8827273099        0.1928355822        1.5238673314
 H         -2.3157204495        0.1493133529        3.4651312211
 H         -0.6589284101       -1.6675271176        3.6495459819
 H         -0.5734962011       -3.4461248587        1.9493020630
 H         -2.1491450415       -3.3726941794        0.0126181333
 H         -2.3801542312       -1.1200010307       -2.1492647381
 H         -4.5602167001        1.6541596104       -1.6292956594
 H         -3.8233033191        3.7679184508       -0.5478429209
 H         -1.5958805989        3.9235246507        0.4673099785
 H          0.1746663006        1.5595254009        1.6594951097
 C          0.8960721610        3.3553628100        0.7451523284
 C          0.6120926216        4.2144028409        1.9401196579
 C          1.9727111613        3.6155492103        1.7549028080
 H          2.7930605615        4.2618396199        1.4809409674
 H          2.2602486312        2.7928761506        2.3934582484
 H          0.4987920419        5.2781447408        1.7942155472
 H         -0.0158746484        3.8041202816        2.7164407883
 H          0.9915411210        3.8365528794       -0.2216421720
