  62
        -98.94103267
 C         -1.7058632924        0.2200119710       -0.9415289416
 C         -2.9174642949        0.9189525053       -0.7192104275
 C         -4.1108418035        0.0849614707       -0.5036605924
 C         -3.9999873276       -1.2549248235       -0.5186522305
 C         -5.1215342629       -2.2149023373       -0.2494815074
 C         -5.2025329383       -2.5712062951        1.2416058850
 C         -5.1769458220       -1.3569703576        2.1700991857
 H         -4.2021252774       -0.8696463119        2.0935918350
 H         -5.2705781204       -1.7280939472        3.1930405588
 C         -6.2810211035       -0.3257914103        1.8979457282
 H         -6.7189803037       -0.0218045822        2.8510734838
 H         -7.0765217714       -0.7814752364        1.3071804715
 C         -5.8004575472        0.9490114210        1.2021764819
 H         -4.9425055778        1.3591837817        1.7408557996
 H         -6.6038958971        1.6886619301        1.2550618352
 C         -5.4144575532        0.7973887915       -0.2745472793
 H         -5.2844620755        1.8017904574       -0.6879090313
 H         -6.2232943434        0.3047940693       -0.8178448220
 H         -4.3523887312       -3.2101278369        1.4913631224
 H         -6.1177529986       -3.1414972098        1.4107609295
 H         -6.0592685787       -1.7720878945       -0.5794362835
 H         -4.9390474783       -3.1257895944       -0.8220908029
 O         -2.8221871739       -1.8927801863       -0.7358526227
 C         -1.6566180416       -1.1785537702       -0.9458783299
 O         -0.6498353706       -1.8913602577       -1.1303595850
 H          2.0178770108        0.1342555488       -0.2253016767
 C          1.5407334717        0.8509367779        0.4256488041
 C          0.2848227082        1.3419848992        0.1009059480
 C         -0.3248589010        2.2482334818        0.9618731782
 C          0.3160403942        2.6490860213        2.1195679513
 C          1.5802051116        2.1771741591        2.4273096254
 C          2.1987302306        1.2732240816        1.5721251593
 N          3.4754015597        0.7697884866        1.8565193269
 S          4.5717439324        0.5081857187        0.6195212943
 O          5.8637633390        0.5432572603        1.2709512844
 O          4.3818523631        1.4405488365       -0.4665670546
 C          4.2463564774       -1.1548775610        0.0771689387
 C          4.0533907745       -1.4121921077       -1.2651815839
 C          3.8235933446       -2.7166878504       -1.6722737422
 C          3.7926525914       -3.7359843068       -0.7336906541
 C          3.9922020106       -3.4617288544        0.6108837725
 C          4.2230972024       -2.1597285428        1.0236686109
 H          4.3852464999       -1.9083141822        2.0585581474
 H          3.9659473669       -4.2584537350        1.3368183283
 H          3.6096211908       -4.7497086836       -1.0533463402
 H          3.6646838314       -2.9313193973       -2.7169622519
 H          4.0796149969       -0.5888016212       -1.9620897922
 H          3.9158690683        1.1602301687        2.6766397407
 H          2.0855163936        2.5045439599        3.3234343983
 H         -0.1677718682        3.3491689830        2.7841223387
 H         -1.3029813510        2.6311918440        0.7148762296
 C         -0.3718963611        0.9059172926       -1.1871941051
 H          0.2736092362        0.1406053887       -1.6394276324
 C         -0.4558644044        2.0807876540       -2.1443997804
 C          0.8124451745        2.6069784796       -2.7439284624
 C         -0.1712661780        1.8664919533       -3.5987051230
 H         -0.7457087507        2.4234925178       -4.3237005295
 H          0.0812414087        0.8654611966       -3.9174814594
 H          1.7373233671        2.1166970194       -2.4756308749
 H          0.9115835335        3.6730188066       -2.8813813105
 H         -1.2244273262        2.7957559500       -1.8830622676
 O         -3.0272687875        2.1739554808       -0.6950178941
