  62
        -98.94427220
 C          1.6780212950        0.8051417056       -0.1402168746
 C          2.1485325054       -0.0805949795        0.8581197903
 C          3.1924751146       -1.0255674962        0.4406365446
 C          3.6071310910       -1.0224576841       -0.8397156324
 C          4.6999132092       -1.8933057711       -1.3870917926
 C          6.0657539412       -1.1995300515       -1.2871094407
 C          6.3628262544       -0.6148850920        0.0938224603
 H          7.3631877586       -0.1786691108        0.0535177601
 H          5.6643311927        0.2009915206        0.2930667974
 C          6.2942757074       -1.6315756907        1.2419500063
 H          6.3564329902       -2.6450992101        0.8438788970
 H          7.1597021179       -1.4853408391        1.8916666952
 C          5.0498136015       -1.5088794571        2.1228867300
 H          4.9326797620       -0.4723190204        2.4487502038
 H          5.2048514396       -2.1177947299        3.0175474246
 C          3.7328572741       -1.9646662352        1.4823295712
 H          3.8520740781       -2.9695731360        1.0716708731
 H          2.9761476283       -2.0035701056        2.2715985713
 H          6.8395211929       -1.9221527639       -1.5527737828
 H          6.0949832418       -0.3869008940       -2.0166519234
 H          4.7177956113       -2.8336517024       -0.8392436463
 H          4.4826306038       -2.0992040725       -2.4366415070
 O          3.1008494842       -0.1860265106       -1.7813855787
 C          2.1265774896        0.7496095207       -1.4600245158
 O          1.7496545969        1.4486615211       -2.4185778890
 H         -0.4834072179       -0.5624373777       -0.2628132983
 C         -1.0903727482        0.2346468024       -0.6747458308
 C         -0.6660653825        1.5503986277       -0.5332686633
 C         -1.4658454543        2.5590049844       -1.0545872186
 C         -2.6455492039        2.2530356682       -1.7122789894
 C         -3.0557595574        0.9414586841       -1.8623318899
 C         -2.2659056085       -0.0743793536       -1.3396999972
 N         -2.6862121354       -1.4160740979       -1.4679697509
 S         -4.1564036122       -1.7774685131       -0.7442311351
 O         -4.1411067301       -3.2063019074       -0.5260759258
 O         -5.2263573909       -1.2710256656       -1.5651604946
 C         -4.1010967011       -0.8979163545        0.8054912684
 C         -4.7541388744        0.3111355672        0.9319534092
 C         -4.6153645429        1.0246259266        2.1117431497
 C         -3.8257530596        0.5229262122        3.1346783238
 C         -3.1782850446       -0.6950628720        2.9931415264
 C         -3.3125986960       -1.4120561536        1.8156970554
 H         -2.8265441745       -2.3638986898        1.6699818909
 H         -2.5616701400       -1.0822432063        3.7885854144
 H         -3.7122368839        1.0832194130        4.0493378441
 H         -5.1171880672        1.9717239646        2.2264265667
 H         -5.3564826703        0.6655213417        0.1120038348
 H         -1.9876527164       -2.0776726305       -1.1601233296
 H         -3.9719834151        0.6848311792       -2.3690622382
 H         -3.2527816420        3.0484850581       -2.1162845697
 H         -1.1640529821        3.5879050876       -0.9487788277
 C          0.6101154340        1.8178789162        0.2269489072
 H          0.4033198904        1.6455759395        1.2944372574
 C          1.1319947825        3.2291937318        0.0547125665
 C          0.6430651112        4.3326700459        0.9433485824
 C          2.0330816073        3.7985763215        1.1081869118
 H          2.8655480642        4.4125098738        0.7985658139
 H          2.2450969328        3.1782966798        1.9670229382
 H         -0.0868562461        4.0816798015        1.6978364907
 H          0.5225586634        5.3189096910        0.5210495771
 H          1.3607535921        3.4639348520       -0.9787093493
 O          1.7085924445       -0.0861519334        2.0398351231
