  62
        -98.93785903
 C         -2.5886737094       -1.1408127587        0.5062703279
 C         -3.4418117523       -0.8488786146       -0.5870730201
 C         -4.5978143075        0.0118571232       -0.2828523080
 C         -4.7831211845        0.4620578109        0.9702981207
 C         -5.8814700077        1.3911218081        1.3975167194
 C         -5.4396403675        2.8577525128        1.2955970470
 C         -4.7963956933        3.2174569622       -0.0437420650
 H         -4.5541887561        4.2819512451       -0.0122283722
 H         -3.8524242067        2.6763891174       -0.1425605511
 C         -5.6762480122        2.9293276594       -1.2682182152
 H         -6.7162372425        2.8176923487       -0.9593116496
 H         -5.6289587715        3.7868807023       -1.9427019010
 C         -5.2539023510        1.7021707218       -2.0781222608
 H         -4.1878628398        1.7658708624       -2.3100878648
 H         -5.7966952438        1.7179337643       -3.0270022660
 C         -5.5233181369        0.3430554573       -1.4199995692
 H         -6.5649881484        0.2900041745       -1.0971698130
 H         -5.3573089455       -0.4299905136       -2.1760540768
 H         -6.3108823199        3.4929704086        1.4656170866
 H         -4.7140732648        3.0563596662        2.0878231471
 H         -6.7575224798        1.2203795791        0.7748492776
 H         -6.1355913973        1.1685147956        2.4352558231
 O         -3.9476666688        0.1542074178        1.9956910594
 C         -2.8348770574       -0.6402734457        1.7877802900
 O         -2.1503231012       -0.8391072405        2.8125956635
 O         -3.2678996220       -1.2714742508       -1.7579446843
 C         -1.3480290299       -2.0106477854        0.3822961160
 C         -0.1573454694       -1.1819319026       -0.0262688215
 C         -0.1867229591       -0.3853030633       -1.1669552220
 C          0.9182815195        0.3650151075       -1.5250694633
 C          2.0686943695        0.3426905267       -0.7555573244
 C          2.1081519653       -0.4462521538        0.3856821671
 C          0.9983217787       -1.2031709063        0.7403015463
 H          1.0289815007       -1.8080619943        1.6370504438
 N          3.2681188678       -0.4600776003        1.1778081230
 S          4.7438304779       -0.7447751645        0.4279835732
 O          4.5791501663       -1.5399160648       -0.7663880579
 O          5.5899457752       -1.3002727246        1.4611727336
 C          5.3337055671        0.8808692482        0.0062043078
 C          5.6390128628        1.1838669266       -1.3061851562
 C          6.1046892709        2.4538376985       -1.6097394356
 C          6.2571241142        3.3923896349       -0.6007249291
 C          5.9489950636        3.0710787025        0.7129795117
 C          5.4838002673        1.8032451719        1.0231482477
 H          5.2378839656        1.5128182789        2.0309958546
 H          6.0694111235        3.8034422077        1.4949870401
 H          6.6187724334        4.3801526027       -0.8392694484
 H          6.3457320688        2.7052828072       -2.6301366542
 H          5.5014016761        0.4233221122       -2.0583410386
 H          3.1810629389       -1.0080649045        2.0214370721
 H          2.9305944845        0.9284151895       -1.0303950992
 H          0.8834050737        0.9771976298       -2.4135724366
 H         -1.0822029152       -0.3682522013       -1.7694637891
 H         -1.1575644352       -2.3795077609        1.4028278070
 C         -1.5609143280       -3.2332383018       -0.5008552261
 C         -0.8839449276       -3.4444632553       -1.8181887486
 C         -0.4708241459       -4.2564081260       -0.6300025335
 H         -0.7330981376       -5.3029811192       -0.5948768479
 H          0.4834338844       -4.0255741965       -0.1788361628
 H         -1.4556777701       -3.9189154608       -2.6009803361
 H         -0.2037424448       -2.6877249869       -2.1755431031
 H         -2.5732587613       -3.6155906518       -0.4192530060
