  62
        -98.94251523
 C         -1.7443149361        0.1294724381        0.8301901830
 C         -3.0409372016        0.4885202430        1.2688299485
 C         -4.1433889096       -0.3126537615        0.7254141381
 C         -3.8789225421       -1.3245976653       -0.1212516755
 C         -4.8932738875       -2.2486688163       -0.7389643561
 C         -5.5564584972       -1.6913509104       -2.0059787687
 C         -6.5619125052       -0.5633832845       -1.7712082570
 H         -7.2870331217       -0.8747942840       -1.0186520428
 H         -7.1057114586       -0.4186845299       -2.7068791892
 C         -5.9290164862        0.7725201972       -1.3572699893
 H         -6.3753566667        1.5828088745       -1.9382762494
 H         -4.8626034571        0.7591030468       -1.5944067199
 C         -6.1031017263        1.1257639000        0.1199268964
 H         -7.1630414400        1.2725386089        0.3392523780
 H         -5.5869075712        2.0704459749        0.3098402628
 C         -5.5439352878        0.0771633441        1.0905972939
 H         -6.1910933856       -0.7994238019        1.1109931928
 H         -5.5168317648        0.5161172519        2.0910441227
 H         -6.0788119903       -2.5190344098       -2.4913280685
 H         -4.7748235031       -1.3465781464       -2.6868816426
 H         -5.6600144761       -2.4953016076       -0.0040163795
 H         -4.3588694708       -3.1632191446       -1.0046006599
 O         -2.6163061908       -1.6450367049       -0.5091934378
 C         -1.5208192398       -0.9170257059       -0.0650558466
 O         -0.4308836669       -1.3001789322       -0.5274950255
 O         -3.2657099243        1.4326910144        2.0731322949
 C         -0.5512344365        0.9212011688        1.3352571412
 C          0.1881702407        1.5117087756        0.1612395129
 C         -0.5116436973        2.3103974312       -0.7403442840
 C          0.1156286534        2.8295685143       -1.8556375143
 C          1.4492745285        2.5536815304       -2.1033390975
 C          2.1569257582        1.7591206111       -1.2089843392
 C          1.5295481610        1.2603710509       -0.0742401858
 H          2.1027064892        0.6731145598        0.6220911678
 N          3.4871592974        1.4251398502       -1.4697725744
 S          4.5820268996        0.8003739160       -0.3931013839
 O          4.4182672579        1.3703713231        0.9242461364
 O          5.8685862992        1.0264533302       -1.0166516609
 C          4.3006917159       -0.9623228240       -0.3121845356
 C          3.1457365600       -1.5566308646       -0.7776988737
 C          3.0074993077       -2.9320744582       -0.6558451782
 C          4.0164324582       -3.6879099651       -0.0819315929
 C          5.1740096165       -3.0766657158        0.3767758607
 C          5.3165485884       -1.7040843309        0.2629908407
 H          6.1996451282       -1.1886992706        0.6055399058
 H          5.9605331315       -3.6636493952        0.8233139267
 H          3.8997502397       -4.7564183784        0.0094390104
 H          2.0966708029       -3.3930809816       -1.0038824467
 H          2.3487822704       -0.9729111769       -1.2086636568
 H          3.9083353304        1.8196182510       -2.2946556903
 H          1.9361774291        2.9423187260       -2.9844598849
 H         -0.4384597000        3.4484981708       -2.5454206256
 H         -1.5583686959        2.5115338611       -0.5559855784
 H         -0.9727438741        1.7432119459        1.9321498941
 C          0.3157968282        0.0615900274        2.2302456463
 C          1.2162854561        0.7014461893        3.2427679412
 C         -0.0073736473       -0.0392109414        3.6894870247
 H          0.1163030382       -0.9930323001        4.1798501968
 H         -0.8481013868        0.5333118553        4.0532307302
 H          2.1866764415        0.2630605752        3.4221267377
 H          1.2105157579        1.7792997092        3.3040812593
 H          0.6653999935       -0.8381047079        1.7350970423
