  62
        -98.93902677
 C          1.8173608559       -0.5343774238        0.0063291025
 C          2.9043343693       -0.5750570452       -0.9038681068
 C          4.0875798240        0.2486391534       -0.5935228077
 C          4.0731969013        0.9999372705        0.5228095981
 C          5.1621786102        1.8842508927        1.0691532073
 C          6.2969068019        1.0863439466        1.7314232600
 C          6.7606975809       -0.1402906961        0.9503026915
 H          7.4862943740       -0.6733201253        1.5703785564
 H          5.9122379911       -0.8095454623        0.7972582408
 C          7.4229248395        0.1554475582       -0.3932868085
 H          8.2901995790        0.7994959089       -0.2313612041
 H          7.7859811841       -0.7954163038       -0.7917298169
 C          6.5281273829        0.8020742642       -1.4530602296
 H          6.3976118091        1.8641012637       -1.2628903538
 H          7.0492058690        0.7212867762       -2.4115680057
 C          5.1711423767        0.1302356763       -1.6378709119
 H          5.3209600302       -0.9434637993       -1.7986467651
 H          4.7230834727        0.4997838661       -2.5682890037
 H          7.1411899188        1.7584074351        1.8941305283
 H          5.9442770010        0.7452456416        2.7078999355
 H          5.5482691539        2.5288568245        0.2850259254
 H          4.6986002547        2.5220782467        1.8251484334
 O          3.0051213633        1.0146949755        1.3676486480
 C          1.8623117704        0.2691316983        1.1445073861
 O          0.9917259620        0.4234791583        2.0264976421
 O          2.8956359441       -1.2877639975       -1.9434059246
 C          0.6161474329       -1.4011718335       -0.3312271353
 C         -0.4962530066       -0.5952415333       -0.9578552153
 C         -0.9316272480       -0.8603251146       -2.2506238147
 C         -1.9751677555       -0.1399003193       -2.8063758506
 C         -2.6056425914        0.8569732810       -2.0841394536
 C         -2.1718513162        1.1331466064       -0.7939301262
 C         -1.1309584100        0.4063245160       -0.2366542822
 H         -0.7975421493        0.6289421102        0.7660267904
 N         -2.8218181991        2.1355742091       -0.0428766250
 S         -4.4639544453        1.8844553343        0.1908556946
 O         -5.1779937435        2.2858394492       -0.9954433603
 O         -4.8026541464        2.5938599482        1.4041221223
 C         -4.6070550109        0.1215880920        0.4215303579
 C         -5.1325759158       -0.6650006306       -0.5829560897
 C         -5.1552571655       -2.0399757268       -0.4129313241
 C         -4.6498219668       -2.6009875203        0.7492385915
 C         -4.1271493829       -1.7964510622        1.7501558793
 C         -4.1002808813       -0.4216194344        1.5853484252
 H         -3.7017694858        0.2337594828        2.3437045805
 H         -3.7355052751       -2.2328518580        2.6552158257
 H         -4.6632679398       -3.6719782067        0.8769116378
 H         -5.5610469624       -2.6688243503       -1.1887203523
 H         -5.5134862353       -0.1877046097       -1.4707122875
 H         -2.3695240379        2.3110979183        0.8435847215
 H         -3.4250177556        1.4249135921       -2.4944672730
 H         -2.3016495445       -0.3570914738       -3.8117951080
 H         -0.4385301918       -1.6310047358       -2.8246291038
 H          0.9810198278       -2.1096657207       -1.0866501269
 C          0.0883057632       -2.1888996119        0.8529978209
 C         -0.7477115753       -3.4056571727        0.5984197358
 C          0.6434018741       -3.5508213253        1.1369090410
 H          0.7734879812       -3.8485548378        2.1665628432
 H          1.4112374963       -3.9255539984        0.4757424988
 H         -1.5784762246       -3.6046617109        1.2567853236
 H         -0.9244073480       -3.6829189930       -0.4294429026
 H         -0.1665831784       -1.5691695170        1.7025099151
