  62
        -98.94184485
 C         -0.7037868399       -1.4351112864        0.4106241805
 C         -1.2287604029       -0.8544139060       -0.7708030345
 C         -2.3428268410        0.0908843321       -0.5714972036
 C         -2.7408341312        0.4033060402        0.6736557681
 C         -3.9221809235        1.2666417881        1.0091089399
 C         -5.1958322753        0.4215203156        1.1548795032
 C         -5.4365873428       -0.5395840574       -0.0094358007
 H         -4.6515681307       -1.2992254721       -0.0139137056
 H         -6.3802359624       -1.0545388624        0.1833212964
 C         -5.4948358101        0.1336795485       -1.3879858589
 H         -5.6706972881        1.2036413819       -1.2717730599
 H         -6.3425359865       -0.2749518203       -1.9421216525
 C         -4.2520934778       -0.0840091705       -2.2538969262
 H         -4.0224421570       -1.1515021914       -2.3040462056
 H         -4.4824019396        0.2475395971       -3.2700814839
 C         -2.9871507582        0.6589349957       -1.8044894469
 H         -2.2436850965        0.5644999189       -2.6022031458
 H         -3.2125237755        1.7191066082       -1.6716697903
 H         -6.0483355850        1.0960708529        1.2528056634
 H         -5.1193355475       -0.1659549964        2.0725465206
 H         -3.7245527708        1.7720333508        1.9551785468
 H         -4.0624759147        2.0103546552        0.2273661040
 O         -2.1374661060       -0.0896782053        1.7843394179
 C         -1.1264470329       -1.0278207812        1.6793227970
 O         -0.6878298248       -1.4319304691        2.7743254585
 H          1.4617267099       -0.3715156512       -0.8422275156
 C          2.1331738375       -0.8085222716       -0.1181227601
 C          1.7375096879       -1.9218190002        0.6105085884
 C          2.6262684646       -2.4789707396        1.5229203039
 C          3.8873555211       -1.9386750199        1.6972971198
 C          4.2773716490       -0.8246811267        0.9772109216
 C          3.3925687995       -0.2551033098        0.0670980373
 N          3.7664288171        0.8804084093       -0.6613478255
 S          2.6429888385        1.9711619859       -1.2236874380
 O          2.0092065101        1.4739889582       -2.4174634119
 O          3.4008513346        3.1954253958       -1.3882205654
 C          1.4316678917        2.2168503647        0.0646545410
 C          1.7923132974        2.1483942759        1.3955542192
 C          0.8381977407        2.4196871726        2.3630448772
 C         -0.4452398992        2.7823430332        1.9877059331
 C         -0.7875081810        2.8623376312        0.6475510295
 C          0.1547563346        2.5660878357       -0.3235351745
 H         -0.0787757559        2.5905395032       -1.3762077889
 H         -1.7823898763        3.1547076333        0.3548389646
 H         -1.1823499774        3.0009276898        2.7440542483
 H          1.0996562467        2.3490502562        3.4065748482
 H          2.7985854748        1.8797272755        1.6724845545
 H          4.6272699845        1.3227360186       -0.3761302369
 H          5.2570111496       -0.3937354480        1.1154840385
 H          4.5693883580       -2.3812814167        2.4068137657
 H          2.3159154540       -3.3326354334        2.1067884951
 C          0.3661843858       -2.5153413616        0.4199390385
 H          0.1534860088       -3.1241172120        1.3145262112
 C          0.2965313060       -3.4495869223       -0.7799168174
 C          1.2642572284       -3.4044308962       -1.9196312393
 C          1.3133404053       -4.5404566537       -0.9451386302
 H          0.9775558127       -5.5142549067       -1.2680794093
 H          2.1383012794       -4.5638478228       -0.2493797071
 H          2.0511502699       -2.6665518420       -1.8930872282
 H          0.8752865282       -3.5788478950       -2.9112541540
 H         -0.7282238699       -3.7000614793       -1.0348532623
 O         -0.8272222942       -1.1100577047       -1.9340739554
