  62
        -98.93101922
 C         -2.3475268999        0.3651376082       -0.3243101974
 C         -3.1475783821       -0.3825480599        0.5719408124
 C         -4.5587273231       -0.5995096589        0.1833243401
 C         -4.9983936127       -0.1010211145       -0.9863777965
 C         -6.3857036395       -0.1661526964       -1.5678033954
 C         -7.3551918860        0.8196550637       -0.8956973884
 C         -7.2623940149        0.8746432332        0.6269568820
 H         -6.2424032077        1.1363108877        0.9146794893
 H         -7.9129249353        1.6835080684        0.9701238111
 C         -7.6830537704       -0.4020632178        1.3509818214
 H         -7.6483611002       -0.1929114127        2.4232623944
 H         -8.7181198461       -0.6360363539        1.0919636252
 C         -6.8236955183       -1.6388601983        1.0810224319
 H         -7.0595386731       -2.0770581708        0.1150420733
 H         -7.0869281426       -2.3878398180        1.8337610549
 C         -5.3203790718       -1.4105522380        1.2044244307
 H         -4.8213596143       -2.3868205546        1.2369153768
 H         -5.1064279775       -0.9481984783        2.1747884291
 H         -8.3727136849        0.5594689529       -1.1920285298
 H         -7.1373438608        1.8199173642       -1.2779725379
 H         -6.2949326838        0.1006488132       -2.6230340818
 H         -6.7659062655       -1.1819052856       -1.5147351364
 O         -4.1880278312        0.6095744326       -1.8229950398
 C         -2.8675063177        0.8645853292       -1.5197313462
 O         -2.2634716138        1.5399182547       -2.3793193902
 O         -2.7269987079       -0.8644786687        1.6568513632
 C         -0.8959913035        0.6935617290       -0.0424367721
 C          0.0585538266       -0.4589015081       -0.2670806645
 C         -0.3529014440       -1.7805382498       -0.3722077303
 C          0.5750547780       -2.7925469051       -0.5496175774
 C          1.9259452246       -2.5100204314       -0.6206937857
 C          2.3496419316       -1.1878485201       -0.5318699712
 C          1.4159512557       -0.1777468948       -0.3614283205
 H          1.7611469722        0.8414435188       -0.2983152457
 N          3.7110749145       -0.8640775892       -0.6473315781
 S          4.3178534633        0.4551616474        0.2143415151
 O          3.9060354307        0.3799925789        1.5975436526
 O          3.9778867657        1.6661526575       -0.4895602667
 C          6.0684476931        0.1478463207        0.0707089928
 C          6.7435654481       -0.4464117486        1.1200969216
 C          8.0994298673       -0.7016039398        0.9862005708
 C          8.7527211490       -0.3630468774       -0.1891932394
 C          8.0617829602        0.2335454308       -1.2336748684
 C          6.7066124940        0.4930460097       -1.1058521449
 H          6.1312740451        0.9635674666       -1.8860483393
 H          8.5738369484        0.4977951387       -2.1448530729
 H          9.8077895485       -0.5623390237       -0.2911101772
 H          8.6399772454       -1.1617408681        1.7976272639
 H          6.1962017921       -0.6841888937        2.0180656470
 H          4.3144454405       -1.6710876446       -0.5653929245
 H          2.6457040000       -3.3031882934       -0.7535286489
 H          0.2383888013       -3.8156144684       -0.6251681244
 H         -1.4034347536       -2.0183436228       -0.3050880669
 H         -0.6246065420        1.4839516692       -0.7580812297
 C         -0.7051301951        1.2394270083        1.3634899051
 C          0.2901841606        2.3247596126        1.6335790125
 C         -1.1772725128        2.6239547676        1.6877935041
 H         -1.6385849923        2.8004213449        2.6476160469
 H         -1.6063796504        3.2028693096        0.8822341645
 H          0.8499338880        2.2879774902        2.5559833610
 H          0.8555418418        2.7198320474        0.8022226666
 H         -0.8401007057        0.4820926432        2.1261967441
