  62
        -98.94017046
 C          2.2463708004        0.9474679689        0.4501974288
 C          2.3219827516       -0.0949772145       -0.5069278277
 C          3.2492948172       -1.1890948378       -0.1818133195
 C          3.8989631472       -1.1954585478        0.9951660288
 C          4.8606533569       -2.2490527457        1.4734403291
 C          6.2953099001       -2.0610319101        0.9611417439
 C          6.5044001681       -2.3795821349       -0.5199164297
 H          7.5822549882       -2.4170328015       -0.6896699265
 H          6.1063006532       -3.3713763851       -0.7364750658
 C          5.8888782657       -1.3541007424       -1.4822974773
 H          5.6740545664       -0.4297139743       -0.9409840890
 H          6.6127824099       -1.1059882002       -2.2616770526
 C          4.6142264323       -1.8265081539       -2.1818090965
 H          4.2463662100       -1.0115528385       -2.8104462765
 H          4.8454388252       -2.6735432742       -2.8313010735
 C          3.4850117926       -2.2369331621       -1.2273428093
 H          2.5643454692       -2.3393083642       -1.8070013055
 H          3.7150711902       -3.1951395243       -0.7620467106
 H          6.9392306045       -2.7207289826        1.5473688924
 H          6.6052838211       -1.0324546544        1.1604442044
 H          4.8731368030       -2.1866211810        2.5638397411
 H          4.4965895328       -3.2359101903        1.1861704270
 O          3.7284378718       -0.2193471830        1.9277497438
 C          2.9172132703        0.8750094661        1.6731728422
 O          2.8619604878        1.6971678883        2.6108349683
 H         -0.2701571853        0.4850053149        1.4533902596
 C         -0.7178061484        0.8509048799        0.5359925024
 C          0.0016000787        1.7389055141       -0.2555686390
 C         -0.5834046728        2.2038595961       -1.4251939193
 C         -1.8486107973        1.7784618408       -1.7917211921
 C         -2.5544297736        0.8852398028       -1.0078651458
 C         -1.9800976648        0.4151509621        0.1662267776
 N         -2.6841123604       -0.5078314753        0.9617069179
 S         -4.2495939921       -0.1127743855        1.4231422313
 O         -4.4248292949        1.3175987110        1.5293196956
 O         -4.4941580476       -0.8797008211        2.6256388602
 C         -5.2619055970       -0.7564544485        0.1079070277
 C         -6.1615451906        0.0704586207       -0.5357800815
 C         -6.9467963546       -0.4549943937       -1.5501800770
 C         -6.8196185601       -1.7905399635       -1.8999012861
 C         -5.9127412384       -2.6081421720       -1.2418235469
 C         -5.1256467483       -2.0896195551       -0.2260886679
 H         -4.4099815619       -2.6904683770        0.3100453361
 H         -5.8155249449       -3.6458977369       -1.5175032864
 H         -7.4306600422       -2.1970273946       -2.6902406347
 H         -7.6520879255        0.1787607174       -2.0632768498
 H         -6.2200001496        1.1040121095       -0.2341694070
 H         -2.1569632588       -0.8420102947        1.7554710848
 H         -3.5363003830        0.5464244184       -1.2954202835
 H         -2.2886704964        2.1432101752       -2.7072764248
 H         -0.0419754782        2.8837142182       -2.0619077734
 C          1.3654601977        2.1650947968        0.2318199907
 H          1.2336621506        2.6031789631        1.2358709531
 C          2.0050138621        3.2456707420       -0.6280026908
 C          3.4951892676        3.3904785194       -0.7029921230
 C          2.7256107878        2.9337831161       -1.9038082012
 H          2.6189965346        3.6187170112       -2.7323030194
 H          2.7924822309        1.8988559566       -2.1981663486
 H          3.9137656088        4.3857773767       -0.7036443571
 H          4.0957268666        2.6664707743       -0.1709984457
 H          1.4369131728        4.1705718796       -0.6014769105
 O          1.6601120399       -0.1252889105       -1.5747201360
