  62
        -98.93984566
 C          2.3431267514        0.9667431947        0.5072095220
 C          2.6143167871        0.0625196380       -0.5492749827
 C          3.5729648332       -1.0095307554       -0.2410181542
 C          4.0937488930       -1.1173509248        0.9937723084
 C          5.0499067285       -2.1786310522        1.4661534638
 C          6.5208815204       -1.8844806721        1.1418290598
 C          6.9045545891       -2.0335743175       -0.3309230362
 H          7.9949625450       -2.0130325405       -0.3816766494
 H          6.5804548835       -3.0097906713       -0.6929317853
 C          6.3476343372       -0.9327666614       -1.2444400393
 H          6.0302544300       -0.0817536194       -0.6373040794
 H          7.1384004892       -0.5748929186       -1.9076463955
 C          5.1803484121       -1.3724768785       -2.1283268214
 H          5.5212627385       -2.1335250138       -2.8338326147
 H          4.8415133537       -0.5077036907       -2.7048231526
 C          3.9767190520       -1.9275169661       -1.3555659085
 H          4.2040777702       -2.9204179738       -0.9681298784
 H          3.1329366876       -2.0053551683       -2.0458504026
 H          7.1282244607       -2.5800836232        1.7253939582
 H          6.7574775668       -0.8728771917        1.4795703064
 H          4.9409482837       -2.2323263524        2.5514614235
 H          4.7679318003       -3.1420198000        1.0403323872
 O          3.7787791044       -0.2521440751        1.9936238078
 C          2.9244635387        0.8133871776        1.7701940772
 O          2.7593535031        1.5496088508        2.7630798130
 O          2.0902374564        0.1182653104       -1.6926974803
 C          1.4120691429        2.1608602148        0.3666127417
 C         -0.0222197183        1.7662637689        0.6094879519
 C         -0.8180379335        2.4702288472        1.5050297131
 C         -2.1375066997        2.1056593201        1.7099783611
 C         -2.6881271173        1.0340969127        1.0300309948
 C         -1.9016776130        0.3251250657        0.1312033357
 C         -0.5798119572        0.6938707678       -0.0730736512
 H          0.0251154089        0.1476853957       -0.7820535122
 N         -2.4440657241       -0.7739508397       -0.5573901816
 S         -3.9090902028       -0.5631730644       -1.3501898257
 O         -3.9232949979       -1.5598074620       -2.3982312959
 O         -4.0931399527        0.8085944031       -1.7644233914
 C         -5.1217346561       -0.9997380037       -0.1217298017
 C         -5.0105364215       -2.2328099239        0.4905011738
 C         -5.9514439364       -2.5949684975        1.4410183125
 C         -6.9835187993       -1.7244577698        1.7589892382
 C         -7.0831614922       -0.4915082623        1.1329068244
 C         -6.1443478491       -0.1225855915        0.1818067312
 H         -6.1781423774        0.8278362215       -0.3265678408
 H         -7.8862721260        0.1834923277        1.3814872435
 H         -7.7143951304       -2.0092735325        2.4992767398
 H         -5.8769687214       -3.5527793503        1.9303824986
 H         -4.1952793996       -2.8800955558        0.2129100474
 H         -1.7764056868       -1.2350161179       -1.1592952990
 H         -3.7148680383        0.7459919446        1.1861607942
 H         -2.7441134543        2.6603974121        2.4093213888
 H         -0.3925301880        3.3008800729        2.0489875394
 H          1.7061854514        2.8487468217        1.1747750897
 C          1.6057138407        2.9043942233       -0.9496839662
 C          0.5851481648        2.9503151345       -2.0433937989
 C          0.8444820559        4.1697223500       -1.2138499147
 H          1.3628770596        5.0039278501       -1.6616372243
 H          0.0876342308        4.4510875036       -0.4970791725
 H          0.9439835960        2.9248562626       -3.0613362498
 H         -0.3487039754        2.4275413386       -1.9040936423
 H          2.6429062341        2.8895369673       -1.2697337182
