  62
        -98.93980918
 C          2.4894342426        1.0120271888       -0.0501826098
 C          3.6958136903        1.0596301352        0.6884832588
 C          4.8792702359        0.5139730017        0.0151721026
 C          4.7702073684        0.0254368759       -1.2339185892
 C          5.8901225257       -0.5455933499       -2.0609495578
 C          6.1850143854       -2.0244294778       -1.7750203105
 C          6.8779072116       -2.3033236809       -0.4406561676
 H          7.2171468174       -3.3407675203       -0.4667535901
 H          7.7636901068       -1.6733501734       -0.3535725523
 C          5.9824408236       -2.1086974057        0.7909446323
 H          4.9345147447       -2.0982886413        0.4814925168
 H          6.1059757731       -2.9563064658        1.4689674053
 C          6.2748911803       -0.8407621619        1.5935155070
 H          5.5609676121       -0.7858762347        2.4194911797
 H          7.2784691018       -0.9007847087        2.0204030279
 C          6.1644942459        0.4584736849        0.7847036521
 H          6.1703285296        1.2986724326        1.4833999222
 H          7.0162848679        0.5564228086        0.1121811688
 H          5.2471735246       -2.5828745070       -1.8224196513
 H          6.8299178534       -2.3893081670       -2.5777597969
 H          5.5838012789       -0.4517864891       -3.1049630830
 H          6.7952335236        0.0431845554       -1.9096160958
 O          3.5943863934        0.0123362634       -1.9162033701
 C          2.4231146246        0.4813187679       -1.3383710133
 O          1.4173606933        0.3806653381       -2.0660021794
 O          3.7786175050        1.5343332404        1.8532857299
 C          1.2160968476        1.5330105745        0.5915029541
 C          0.2147768313        0.4103326531        0.7111650411
 C          0.5981632496       -0.7541682541        1.3725340638
 C         -0.2759690868       -1.8154685809        1.5011913603
 C         -1.5528571755       -1.7424223561        0.9717337832
 C         -1.9494674744       -0.5837588586        0.3197901698
 C         -1.0709250490        0.4881748984        0.2023000239
 H         -1.3939368984        1.3812968893       -0.3092172870
 N         -3.2369268488       -0.5043251606       -0.2382845956
 S         -4.5256699854       -1.1413801624        0.6462317232
 O         -4.4518698884       -0.6990256743        2.0209940823
 O         -4.5598575887       -2.5687306195        0.4468661798
 C         -5.9085276353       -0.3822457564       -0.1818705018
 C         -6.3517776622       -0.9317395946       -1.3700590352
 C         -7.4090226071       -0.3288663792       -2.0325974432
 C         -8.0013924614        0.8066059520       -1.4996773092
 C         -7.5464155463        1.3453726318       -0.3055866299
 C         -6.4883685581        0.7483023099        0.3617259244
 H         -6.1068356574        1.1273762076        1.2962556311
 H         -8.0110354677        2.2263538507        0.1072282456
 H         -8.8246694484        1.2732095181       -2.0171677897
 H         -7.7672746082       -0.7456238006       -2.9600636324
 H         -5.8668740160       -1.8193665328       -1.7415751578
 H         -3.4479479416        0.4209530887       -0.5859867729
 H         -2.2449396976       -2.5641641396        1.0617833730
 H          0.0373097631       -2.7117892150        2.0159633122
 H          1.5968019356       -0.8151971792        1.7841131676
 H          1.5064912294        1.8383432052        1.6077562472
 C          0.7012549161        2.7463135193       -0.1526491052
 C         -0.1542841691        3.7547234337        0.5530917976
 C          1.2587818769        4.0945142500        0.1881062869
 H          1.4313922188        4.7979895663       -0.6124810194
 H          1.9957451237        4.1415912863        0.9764016527
 H         -0.9518707886        4.2311071915        0.0030540211
 H         -0.3806526476        3.5761000817        1.5934705682
 H          0.4980185500        2.5397358410       -1.1974591051
