  62
        -98.94414356
 C          2.5197500243        1.1565182561       -0.0703884558
 C          3.2157557687        0.3902531286        0.8941888297
 C          4.0199928500       -0.7196256348        0.3712052297
 C          4.0652498736       -0.9436180465       -0.9551103502
 C          4.8601544703       -2.0197610390       -1.6439174847
 C          4.1548346061       -3.3820350829       -1.6938993183
 C          4.0847739341       -4.1271927081       -0.3603652609
 H          3.7620389387       -5.1470373773       -0.5787582719
 H          5.0829531256       -4.1876033317        0.0742261955
 C          3.1152299640       -3.5111668746        0.6581862488
 H          2.4324823062       -2.8299397981        0.1441353204
 H          2.5037846281       -4.2993356813        1.1038870376
 C          3.7933105493       -2.7608904502        1.8049628822
 H          4.3789142671       -3.4609768930        2.4048471472
 H          3.0151607413       -2.3390968097        2.4471443668
 C          4.7101382210       -1.6152356958        1.3554996166
 H          4.9627189575       -1.0144606218        2.2326919068
 H          5.6294026362       -2.0151059818        0.9284217429
 H          3.1448031163       -3.2381161535       -2.0845931294
 H          4.7007263742       -4.0057762454       -2.4052736098
 H          5.0210527324       -1.6782301152       -2.6685935402
 H          5.8295420413       -2.1280465973       -1.1568870755
 O          3.3834386452       -0.1815343450       -1.8504823378
 C          2.5745577309        0.8669115124       -1.4340962369
 O          1.9761778038        1.4498627995       -2.3566876229
 O          3.1633961362        0.6198769645        2.1335788008
 C          1.6488577385        2.3086068648        0.3949534934
 C          0.2041395716        2.0483974062        0.0426777408
 C         -0.6285354353        3.0014890140       -0.5279998891
 C         -1.9494544117        2.6985837382       -0.8118727786
 C         -2.4689015055        1.4486125037       -0.5318812413
 C         -1.6492955686        0.4913819110        0.0525330428
 C         -0.3285577980        0.7989353965        0.3381799685
 H          0.3077794011        0.0518360635        0.7982090487
 N         -2.1682491485       -0.7851869976        0.3379974974
 S         -3.5663322043       -0.8667659046        1.2681251823
 O         -3.6747904263        0.2670796357        2.1568124651
 O         -3.5296735769       -2.1715146700        1.8921200372
 C         -4.8834302231       -0.8333990739        0.0711376966
 C         -5.8626329281        0.1372065850        0.1517979380
 C         -6.8849234039        0.1365661043       -0.7845619523
 C         -6.9096980620       -0.8295649094       -1.7786687553
 C         -5.9196488662       -1.7988452616       -1.8442606092
 C         -4.8957945081       -1.8047989927       -0.9105851250
 H         -4.1102927880       -2.5419615953       -0.9236722917
 H         -5.9422254146       -2.5485366867       -2.6187388611
 H         -7.7052891454       -0.8276857164       -2.5068805032
 H         -7.6557280111        0.8887378065       -0.7351135189
 H         -5.7988091175        0.8710773044        0.9392803252
 H         -1.4771655423       -1.4296778449        0.6943296144
 H         -3.4946394235        1.2075416113       -0.7581840123
 H         -2.5826649987        3.4477067994       -1.2619968814
 H         -0.2427492243        3.9815410086       -0.7549596320
 H          1.7312555235        2.3106294621        1.4928457959
 C          2.1784729000        3.6247727925       -0.1334952888
 C          1.9622921563        4.8906999464        0.6390043885
 C          3.3273433807        4.2764464448        0.5741015613
 H          4.0876482996        4.7642822248       -0.0170856053
 H          3.7105019721        3.7832948299        1.4557714174
 H          1.7874505957        5.8050628739        0.0924492096
 H          1.4198466261        4.8219409358        1.5699438624
 H          2.1651321917        3.6736642584       -1.2163561071
