  62
        -98.94443588
 C          1.5114304593        1.4435485701        0.5294779262
 C          1.5893043783        0.1471438013        1.0992865354
 C          2.7496066297       -0.6634407716        0.7078216979
 C          3.6529662146       -0.1466552593       -0.1449775129
 C          4.8603011763       -0.8730200741       -0.6620974847
 C          4.5502079762       -1.5979621027       -1.9789522585
 C          3.2821478382       -2.4500580580       -1.9273241100
 H          2.4162440308       -1.7941146531       -1.8094101709
 H          3.1819015339       -2.9427821327       -2.8968222591
 C          3.2749013081       -3.5046954895       -0.8122395130
 H          4.2921931233       -3.6762305983       -0.4585749249
 H          2.9130774662       -4.4479628651       -1.2262266717
 C          2.3727477840       -3.1650306349        0.3755433537
 H          1.3769722405       -2.8972647171        0.0143553279
 H          2.2714074845       -4.0639036045        0.9885349179
 C          2.8652954397       -2.0415474468        1.2961504117
 H          2.2293832608       -2.0401092263        2.1859944155
 H          3.8928361706       -2.2413103076        1.6070347812
 H          5.4043765733       -2.2270896412       -2.2361872415
 H          4.4297473703       -0.8499714870       -2.7660840649
 H          5.6515260572       -0.1421165563       -0.8376017315
 H          5.1978487267       -1.5860106826        0.0874615147
 O          3.5408549119        1.0958567401       -0.6775269700
 C          2.4590089627        1.9131702781       -0.3802184516
 O          2.4761945368        3.0064044449       -0.9764911256
 H         -1.3578559221        0.3364838596        0.2550849938
 C         -1.4286204533        1.1415953564       -0.4615539736
 C         -0.6415047978        2.2741101202       -0.2896227361
 C         -0.7252751615        3.2960286023       -1.2267873881
 C         -1.5792913538        3.1784209273       -2.3093770391
 C         -2.3763514797        2.0588887141       -2.4661324417
 C         -2.3006165654        1.0311901014       -1.5324004621
 N         -3.0879729236       -0.1240320795       -1.6579050670
 S         -3.8346444438       -0.7475630847       -0.2913597902
 O         -4.9646334013       -1.4909333198       -0.8099403531
 O         -4.1470761171        0.2955835420        0.6578522966
 C         -2.6694439507       -1.9002818535        0.3983621345
 C         -2.1872334617       -2.9069170500       -0.4149527167
 C         -1.3200947354       -3.8421601526        0.1246588295
 C         -0.9548392366       -3.7567135013        1.4602261202
 C         -1.4447768656       -2.7387142999        2.2614857767
 C         -2.3135205400       -1.8008455291        1.7276889277
 H         -2.7121028293       -0.9890741028        2.3154996503
 H         -1.1487945989       -2.6633390248        3.2950706008
 H         -0.2794073563       -4.4860919011        1.8786085302
 H         -0.9295060000       -4.6335057084       -0.4951968826
 H         -2.4990058859       -2.9418665422       -1.4457736026
 H         -3.7155491470       -0.1218368028       -2.4492387950
 H         -3.0511156559        1.9768576175       -3.3050372884
 H         -1.6322363142        3.9750354692       -3.0362573765
 H         -0.1070886065        4.1717994638       -1.1183698182
 C          0.3062920257        2.3001402325        0.8841251582
 H         -0.1848770898        1.7776556941        1.7169855042
 C          0.6808176571        3.6926766966        1.3416942663
 C         -0.3490430371        4.5279662971        2.0401173136
 C          0.8101414417        3.9698739474        2.8082382531
 H          1.5844513629        4.6464558161        3.1375336075
 H          0.6246319324        3.1535265254        3.4909883673
 H         -0.3735991432        5.5889483887        1.8439592731
 H         -1.3226888179        4.0876084813        2.1970491035
 H          1.3775400544        4.1928919559        0.6811341295
 O          0.7312651782       -0.3073705599        1.9017151864
