  62
        -98.94702795
 C          1.5165727512        1.0747937369        0.0790163541
 C          2.5247612595        0.6103103173        0.9537739226
 C          3.0894814918       -0.7081119861        0.6411132741
 C          2.5947994742       -1.4050518423       -0.3987793872
 C          3.1035208186       -2.7423114593       -0.8520607296
 C          4.2052336239       -2.5910922757       -1.9104234419
 C          5.3045371995       -1.6035671880       -1.5188115102
 H          6.0415501265       -1.6009964563       -2.3245781103
 H          4.8783937883       -0.5991105610       -1.4678923736
 C          6.0013794460       -1.9251331088       -0.1894515034
 H          7.0795036631       -1.8151876228       -0.3232058331
 H          5.8128980942       -2.9633871838        0.0859378387
 C          5.6023235064       -1.0134832444        0.9723542559
 H          5.7002847948        0.0315972569        0.6681661315
 H          6.3032711133       -1.1828122863        1.7940490757
 C          4.1881106744       -1.2211438583        1.5296220849
 H          4.0333958064       -2.2771897053        1.7622151367
 H          4.1103164874       -0.6514257104        2.4607028325
 H          4.6435373564       -3.5737310122       -2.0937813484
 H          3.7466139675       -2.2441241606       -2.8391266694
 H          3.4824101119       -3.2906433510        0.0084954310
 H          2.2664563957       -3.2967506835       -1.2803658493
 O          1.5976066046       -0.9442828090       -1.1931558682
 C          1.0228311697        0.2942479348       -0.9674526024
 O          0.1061203514        0.5890479751       -1.7579409687
 H         -0.3041018943        0.5859081206        1.8400194176
 C         -1.0382688677        1.1952239819        1.3263996945
 C         -0.6114516556        2.2375544395        0.5119807096
 C         -1.5724211622        3.0063214233       -0.1314561342
 C         -2.9184492995        2.7097846484        0.0027522588
 C         -3.3321331667        1.6297842366        0.7612643575
 C         -2.3789176349        0.8731508994        1.4286053750
 N         -2.7991549738       -0.2972131023        2.1300264191
 S         -2.5466982755       -1.6596076703        1.1571251457
 O         -3.0634142804       -2.7816827623        1.9134830282
 O         -1.1584075449       -1.7758673501        0.7604693234
 C         -3.5925143570       -1.3183575992       -0.2366554640
 C         -3.0680006849       -0.6839114107       -1.3453287129
 C         -3.9196020593       -0.3738636867       -2.3950504095
 C         -5.2653055900       -0.6977937316       -2.3174112718
 C         -5.7736682346       -1.3358765759       -1.1955104963
 C         -4.9311302901       -1.6472049085       -0.1410850950
 H         -5.2756005483       -2.1427187879        0.7516855884
 H         -6.8205134621       -1.5870882825       -1.1385715685
 H         -5.9211186634       -0.4504087142       -3.1372736261
 H         -3.5199666843        0.1255079881       -3.2630302473
 H         -2.0171248950       -0.4363257185       -1.3774146546
 H         -2.2840608458       -0.4380608671        2.9901840535
 H         -4.3727520346        1.3610094512        0.8408612698
 H         -3.6513502333        3.3114441116       -0.5117939490
 H         -1.2645577294        3.8285030627       -0.7565769824
 C          0.8741872927        2.4271113762        0.3382911958
 H          1.3007808580        2.7799572782        1.2891855397
 C          1.2373186298        3.4070986811       -0.7573399138
 C          1.3026007506        4.8764004005       -0.4679462601
 C          2.5639847780        4.1008903007       -0.6968896413
 H          3.1077353391        4.2549708408       -1.6167874550
 H          3.1963704855        3.8852362158        0.1520951760
 H          1.0824534338        5.1979157112        0.5386715897
 H          0.9828694851        5.5671932080       -1.2332642487
 H          0.8827128260        3.0889131336       -1.7314219083
 O          2.9268499714        1.2656753782        1.9555539340
