  62
        -98.94365639
 C         -2.6336896267       -0.1370107611       -0.2085382881
 C         -2.1685740248       -0.9237473389        0.8746599965
 C         -1.7467185707       -2.2940828978        0.5389338370
 C         -1.7916772191       -2.7122777387       -0.7376062232
 C         -1.3545496818       -4.0653269127       -1.2190486220
 C          0.1192062725       -4.0652832839       -1.6452853449
 C          1.0674162183       -3.4540835166       -0.6127648367
 H          2.0828277814       -3.5653986128       -1.0012993320
 H          0.8780453597       -2.3801894868       -0.5360563350
 C          0.9839272881       -4.0872990114        0.7828571534
 H          1.9987846900       -4.2360749401        1.1578722845
 H          0.5127144160       -5.0695022207        0.7172863424
 C          0.2496365812       -3.2381095130        1.8224543153
 H          0.4563258550       -3.6578268479        2.8112692067
 H          0.6484173963       -2.2202036704        1.8099169767
 C         -1.2751905372       -3.1652305348        1.6692056193
 H         -1.6850671837       -4.1736399825        1.5732411215
 H         -1.6774770386       -2.7146063295        2.5814704816
 H          0.2122109889       -3.4924577968       -2.5708484788
 H          0.4170340524       -5.0960638888       -1.8487334623
 H         -1.5137183476       -4.7935505056       -0.4258649092
 H         -1.9707751512       -4.3361929575       -2.0784799069
 O         -2.2286873856       -1.9260943892       -1.7548499693
 C         -2.6374536406       -0.6267991982       -1.5172829229
 O         -3.0023338466       -0.0123334770       -2.5419676701
 H         -0.4969708748        0.9722386134        0.7560597881
 C         -0.6327226306        1.8898499757        0.2048391907
 C         -1.8848618877        2.2379129915       -0.2756062121
 C         -2.0236018933        3.4412104637       -0.9587824069
 C         -0.9296539536        4.2605326926       -1.1709795358
 C          0.3283888921        3.8820897948       -0.7369977090
 C          0.4753886231        2.6845596738       -0.0475307911
 N          1.7319811603        2.2438161788        0.3997381500
 S          2.0278944517        0.5803895598        0.2684515442
 O          1.4235304496        0.0684921709       -0.9403777122
 O          1.6519451152       -0.0543612698        1.5050777639
 C          3.8053645897        0.5748311798        0.1211740598
 C          4.5696800525        0.6370250942        1.2710839146
 C          5.9504011020        0.6702291273        1.1563442968
 C          6.5403173379        0.6416335689       -0.0986873297
 C          5.7602603035        0.5767580277       -1.2435746936
 C          4.3786512174        0.5446496963       -1.1358673150
 H          3.7310723446        0.4848904565       -1.9961453670
 H          6.2212645429        0.5505260020       -2.2177676346
 H          7.6150336612        0.6669959780       -0.1852271496
 H          6.5598568949        0.7174717487        2.0442553765
 H          4.0652105876        0.6474091583        2.2232340774
 H          2.4973120803        2.7916353249        0.0300859593
 H          1.1890423176        4.5034609408       -0.9328972445
 H         -1.0518441793        5.1912487019       -1.7037665166
 H         -2.9926960731        3.7221234090       -1.3428776731
 C         -3.0663631206        1.3145315919       -0.0788366754
 H         -3.7637880159        1.4957119557       -0.9099114771
 C         -3.7779903056        1.6420086292        1.2192554048
 C         -4.7946361293        2.7420704916        1.2459846687
 C         -5.2322712946        1.3137043149        1.3640707679
 H         -5.5831726682        0.9518754129        2.3184538201
 H         -5.7259032235        0.8594274816        0.5170006216
 H         -5.0055460751        3.2574404278        0.3215010511
 H         -4.8462968951        3.3698039451        2.1220953816
 H         -3.1515238662        1.5120222936        2.0919418667
 O         -2.1081319726       -0.5319628823        2.0707076816
