  62
        -98.94268095
 C          1.6160571691        1.4819321702        0.2330650611
 C          1.3190071397        0.3765940806       -0.5967453997
 C          2.0014493298       -0.8832883295       -0.2717794400
 C          2.8291077493       -0.9227762999        0.7880186403
 C          3.6350183394       -2.1134186800        1.2242444001
 C          4.8522680398       -2.3056501992        0.2973812205
 C          4.8195042705       -3.5942946988       -0.5242756002
 H          5.6009450208       -3.5193383382       -1.2833739598
 H          5.0693218003       -4.4357900891        0.1252527495
 C          3.4865190008       -3.9089620787       -1.2090892910
 H          3.6831557413       -4.6917021682       -1.9448019213
 H          2.7905810606       -4.3314931792       -0.4826194515
 C          2.8033183509       -2.7294920684       -1.9125925406
 H          3.5341404709       -1.9658292482       -2.1790469299
 H          2.3695347414       -3.0961717280       -2.8449807010
 C          1.6573878304       -2.0801461891       -1.1148022708
 H          0.9062074307       -1.7150534889       -1.8217027410
 H          1.1694892603       -2.8302393495       -0.4845481214
 H          5.7661624096       -2.3024385694        0.8932765810
 H          4.9101944700       -1.4454232888       -0.3725332390
 H          3.9606981989       -1.9247594904        2.2477300003
 H          3.0024053395       -2.9987562401        1.2219658793
 O          3.0901464688        0.1617828698        1.5645106510
 C          2.4777711986        1.3800770098        1.3222355514
 O          2.7786270381        2.2813894694        2.1331256320
 H         -0.4776895215        1.1889909890        1.6144015099
 C         -1.1249136512        1.7086107493        0.9224222899
 C         -0.5839206210        2.5974707699        0.0021518106
 C         -1.4467806807        3.2580969202       -0.8639781994
 C         -2.8082307107        3.0103935499       -0.8245242702
 C         -3.3345477809        2.0845360893        0.0576906291
 C         -2.4804880012        1.4262280890        0.9344505191
 N         -2.9559628914        0.4512354084        1.8382688784
 S         -2.4155512810       -1.1185138113        1.5916519578
 O         -3.1124928313       -1.9134484920        2.5812656571
 O         -0.9771131310       -1.1614298911        1.6386390184
 C         -3.0266140102       -1.5346301506       -0.0324563427
 C         -4.2151535700       -2.2340403608       -0.1267231536
 C         -4.7434288393       -2.4965394002       -1.3799088940
 C         -4.0827164289       -2.0464938295       -2.5133759935
 C         -2.8944590791       -1.3420795293       -2.4004184225
 C         -2.3560439097       -1.0787912799       -1.1494985521
 H         -1.4299364099       -0.5349877097       -1.0426425414
 H         -2.3748672988       -0.9871686087       -3.2760496321
 H         -4.4950517984       -2.2453698190       -3.4900563238
 H         -5.6667373992       -3.0460844003       -1.4684634647
 H         -4.6909883703       -2.5647499613        0.7825184160
 H         -3.9639024115        0.4367864682        1.9218898479
 H         -4.3925260709        1.8695206091        0.0696153285
 H         -3.4653655305        3.5310163701       -1.5040815102
 H         -1.0510119105        3.9640293806       -1.5757801688
 C          0.9119784690        2.8058258202       -0.0014600886
 H          1.1743662885        3.4472165598        0.8531768919
 C          1.4208509794        3.4532476310       -1.2739139880
 C          1.4938183592        4.9454694810       -1.3908167871
 C          2.7508599393        4.1425298112       -1.2491502570
 H          3.4009524297        4.0414990618       -2.1051923967
 H          3.2747404788        4.1689904108       -0.3043753667
 H          1.2845044696        5.3991760515       -2.3478408970
 H          1.1715499487        5.5307052905       -0.5428109670
 H          1.1711223300        2.8792359014       -2.1588644984
 O          0.5116715602        0.4404311609       -1.5621070400
