  62
        -98.94285999
 C          2.5016166070        0.1895755053       -0.2286323785
 C          2.3498906556        1.3963748786       -0.9556694981
 C          1.7757392297        2.5283330912       -0.2232400388
 C          1.4214431102        2.3746336192        1.0650859862
 C          0.7885150379        3.4226332458        1.9392926906
 C         -0.7338387480        3.5143501244        1.7620609204
 C         -1.1964497835        4.1968004386        0.4735700478
 H         -2.2593636048        4.4160303002        0.5931164541
 H         -0.6761060682        5.1488212390        0.3590219658
 C         -1.0105630276        3.3457849198       -0.7902893927
 H         -1.9166379092        3.4020382633       -1.3988679004
 H         -0.8806095252        2.3000055818       -0.5016292784
 C          0.1562908422        3.7729102986       -1.6815966642
 H          0.2234565629        3.0706404864       -2.5164845847
 H         -0.0398550683        4.7669139195       -2.0909839919
 C          1.5191865959        3.7982283360       -0.9783558271
 H          2.2956430140        3.8920349958       -1.7420411917
 H          1.5813906570        4.6555484149       -0.3083633154
 H         -1.1301664791        4.0757054916        2.6118551314
 H         -1.1467936212        2.5025632027        1.8043189227
 H          1.0001018409        3.1373457246        2.9721663400
 H          1.2429166531        4.3948786242        1.7449432714
 O          1.6149309189        1.2133275617        1.7414002900
 C          2.0994273001        0.0810039475        1.1048030210
 O          2.1425006155       -0.9268509795        1.8381861362
 H          0.3181744139       -0.8482921311       -1.1138087166
 C          0.6110374048       -1.8419238116       -0.8089659456
 C          1.9623508221       -2.1563735340       -0.7189471376
 C          2.3189382901       -3.4442888824       -0.3460013677
 C          1.3424515899       -4.3756703167       -0.0335343630
 C          0.0039097263       -4.0317388591       -0.0461065711
 C         -0.3628199773       -2.7453882152       -0.4257003056
 N         -1.7151341328       -2.3306929638       -0.4263042951
 S         -2.1091991215       -1.0318200406        0.5901765428
 O         -1.2247933697        0.0769922487        0.3568242611
 O         -2.2110612459       -1.5110106014        1.9546609103
 C         -3.7377399991       -0.6432187651       -0.0216555865
 C         -4.8419693928       -1.2449849149        0.5504647839
 C         -6.0998430398       -0.9596256746        0.0431728539
 C         -6.2310728009       -0.0831878715       -1.0233031423
 C         -5.1133776907        0.5148601330       -1.5859531633
 C         -3.8531584604        0.2322918063       -1.0835021096
 H         -2.9570888809        0.6787848803       -1.4833290687
 H         -5.2180062905        1.1988150505       -2.4127585110
 H         -7.2105628537        0.1383475701       -1.4166762685
 H         -6.9708237790       -1.4200463057        0.4809343081
 H         -4.6943637672       -1.9079730442        1.3876457616
 H         -2.3325700872       -3.0956522306       -0.1804141489
 H         -0.7521986768       -4.7453681641        0.2469363799
 H          1.6316631084       -5.3745395286        0.2570562129
 H          3.3593977555       -3.7149006759       -0.2700764189
 C          2.9432235982       -1.0443750043       -0.9991833546
 H          2.8370849688       -0.7520375918       -2.0581961037
 C          4.3978654180       -1.4429245133       -0.8064505394
 C          5.4126243275       -0.4528872838       -0.3202709417
 C          5.0091393407       -1.6013584312        0.5523651721
 H          5.7189538771       -2.4014446863        0.7046468775
 H          4.3788239430       -1.4049370706        1.4052191246
 H          5.0607565502        0.5344201950       -0.0575192550
 H          6.3951125900       -0.4634000384       -0.7679647464
 H          4.7357169406       -2.1327592960       -1.5738802602
 O          2.6659219350        1.5151310484       -2.1711055889
