  62
        -98.94005471
 C         -2.6583222436       -1.1288575043        0.2585686370
 C         -2.5512201387       -0.2878037691       -0.8771594243
 C         -3.3598718929        0.9416213435       -0.8418532971
 C         -4.1343097651        1.1978205507        0.2270006556
 C         -4.9527426638        2.4412771331        0.4170555198
 C         -4.1522914547        3.5209507695        1.1593631015
 C         -2.7556373311        3.7605537371        0.5849948577
 H         -2.2965787059        4.5599809721        1.1709593531
 H         -2.1487794799        2.8642817829        0.7357181480
 C         -2.7362891183        4.1401658525       -0.9024056798
 H         -3.7251967679        4.4828200185       -1.2090119186
 H         -2.0463533300        4.9751927306       -1.0407015342
 C         -2.2751767863        3.0210339701       -1.8382013026
 H         -2.0920952423        3.4567462353       -2.8238451108
 H         -1.3271778019        2.6098541516       -1.4813023612
 C         -3.2612069918        1.8611768243       -2.0263405873
 H         -2.8951474305        1.2464428040       -2.8537220784
 H         -4.2442891182        2.2521774799       -2.2956449748
 H         -4.7219178622        4.4516271975        1.1348349430
 H         -4.0450894061        3.2160484280        2.2031787324
 H         -5.8354343610        2.1868901981        1.0061821847
 H         -5.2710633687        2.8132012850       -0.5547507404
 O         -4.2124209347        0.3667300790        1.2985757461
 C         -3.4579973797       -0.7944726271        1.3535871623
 O         -3.5784065350       -1.4316509361        2.4199160467
 O         -1.8204533656       -0.5333813088       -1.8697874539
 C         -1.8305087631       -2.3965981531        0.3858547211
 C         -0.4044515911       -2.1134674004       -0.0230018087
 C          0.2835539992       -2.8332274582       -0.9897723911
 C          1.5914028953       -2.5071924664       -1.3053907027
 C          2.2380242826       -1.4617393684       -0.6733341885
 C          1.5621026810       -0.7389735765        0.3014655140
 C          0.2581605994       -1.0779721111        0.6261281591
 H         -0.2689286150       -0.5143182508        1.3880425000
 N          2.1978355185        0.3426266445        0.9346194516
 S          3.7540667093        0.1366829651        1.5255602328
 O          3.9943569261       -1.2318408942        1.9213400359
 O          3.8976795468        1.1380690570        2.5600364360
 C          4.7969414570        0.5702938879        0.1496194967
 C          5.7780359379       -0.3041982245       -0.2747040996
 C          6.5837715462        0.0601451814       -1.3423751828
 C          6.3956572610        1.2859504369       -1.9621716418
 C          5.4075779890        2.1540427319       -1.5217644466
 C          4.5996546320        1.7965243640       -0.4543411260
 H          3.8224713529        2.4425438531       -0.0811080871
 H          5.2634453485        3.1061358896       -2.0066835973
 H          7.0224264824        1.5668835951       -2.7937355880
 H          7.3524929690       -0.6130071186       -1.6863250870
 H          5.8833623887       -1.2493896613        0.2336775498
 H          1.6181626817        0.8203358498        1.6088868665
 H          3.2522181266       -1.1993320146       -0.9261836198
 H          2.1119993437       -3.0706185192       -2.0647027238
 H         -0.2097470321       -3.6347639749       -1.5140528307
 H         -1.8261993234       -2.6242243574        1.4655427212
 C         -2.4303629274       -3.6117044840       -0.3057241674
 C         -3.9070392401       -3.7164208191       -0.5413858049
 C         -2.9731147116       -3.5532693775       -1.7007797214
 H         -2.8110297046       -4.4023795791       -2.3486490482
 H         -2.9396721001       -2.6026013273       -2.2080926206
 H         -4.3823366479       -4.6741074563       -0.3902349560
 H         -4.5214489159       -2.8753291599       -0.2538049416
 H         -1.9279400126       -4.5294294329       -0.0152148451
