  62
        -98.93906235
 C          1.9791402117        1.6354709910       -0.2240064592
 C          2.7815481004        1.1902391335        0.8605248447
 C          3.9219274787        0.3331897634        0.5279031192
 C          4.1657853685        0.0284371046       -0.7590439106
 C          5.2864666694       -0.8373174789       -1.2678858917
 C          4.9793460313       -2.3404363221       -1.2193214020
 C          4.9800314587       -2.9605988966        0.1787197792
 H          4.9726995798       -4.0444905315        0.0473994451
 H          5.9076483446       -2.7003355092        0.6894939035
 C          3.7806737336       -2.5622160007        1.0507055161
 H          2.9896733531       -2.1499319550        0.4189648897
 H          3.3690265013       -3.4522064007        1.5322653950
 C          4.1062541518       -1.5576556957        2.1564333523
 H          3.1784634127       -1.3149934232        2.6809797305
 H          4.7921258217       -2.0130211493        2.8742546635
 C          4.7225225917       -0.2452655798        1.6549463091
 H          4.7093299578        0.4755328000        2.4760164087
 H          5.7547736465       -0.4067793438        1.3452848028
 H          4.0106798584       -2.5144680640       -1.6945899378
 H          5.7387502061       -2.8478172347       -1.8189241581
 H          5.4517105515       -0.5529570965       -2.3093441811
 H          6.1954400292       -0.6313173840       -0.7019646193
 O          3.4034998551        0.5073206626       -1.7747720940
 C          2.2772726780        1.2994757830       -1.5444200337
 O          1.6908207049        1.6251673333       -2.5916598766
 O          2.5471907753        1.5057634042        2.0576038271
 C          0.7586880180        2.4451449143        0.1827816907
 C         -0.2067649393        1.5461071681        0.9167254721
 C         -0.8170893490        1.9663182079        2.0933504582
 C         -1.6883324365        1.1355736444        2.7742077848
 C         -1.9844747033       -0.1221750661        2.2804182639
 C         -1.3833877366       -0.5505871408        1.1030540647
 C         -0.4935217705        0.2770303207        0.4337489167
 H         -0.0235797378       -0.0775757557       -0.4727428107
 N         -1.6763470877       -1.8196449905        0.5543052335
 S         -2.5728478626       -1.8057664576       -0.8620485323
 O         -2.8269077461       -3.1943356870       -1.1740072823
 O         -1.8860614673       -1.0281112869       -1.8591766515
 C         -4.0997394933       -1.0068003627       -0.3959311423
 C         -5.1839490835       -1.7862942342       -0.0422306594
 C         -6.3454678198       -1.1645906487        0.3873542297
 C         -6.3985433111        0.2188868723        0.4666072670
 C         -5.3003586296        0.9873285276        0.1117311524
 C         -4.1373150924        0.3717174331       -0.3235737175
 H         -3.2679857928        0.9386195435       -0.6149024801
 H         -5.3408490202        2.0629143095        0.1717470676
 H         -7.3012569952        0.7022789247        0.8051594645
 H         -7.2020079822       -1.7595972418        0.6603833089
 H         -5.0974692019       -2.8578483011       -0.1234916198
 H         -2.1126332514       -2.4512060515        1.2128197923
 H         -2.6663148725       -0.7745535001        2.8052082098
 H         -2.1437903260        1.4705601962        3.6932089622
 H         -0.5839879073        2.9453599458        2.4847552861
 H          1.1228274495        3.1857482143        0.9149611032
 C          0.0864570118        3.2195162274       -0.9377666746
 C         -1.0173622914        2.6539724387       -1.7741733150
 C         -1.3159355106        3.7296573359       -0.7756644176
 H         -1.5473850056        4.7179886804       -1.1425917706
 H         -1.8501997769        3.4513947979        0.1204802117
 H         -1.0173980277        2.8988209504       -2.8254356740
 H         -1.3375133738        1.6407324977       -1.5831916034
 H          0.7872945665        3.8668533047       -1.4538488411
