  62
        -98.93867451
 C         -1.8177216311       -0.3738558796       -0.5177857897
 C         -2.8547312114       -1.1882133288       -0.0108543690
 C         -4.2317792012       -0.6723659686       -0.1370005296
 C         -4.4215484308        0.5243906210       -0.7235772308
 C         -5.7167306706        1.2649413311       -0.9256195316
 C         -6.2328289705        1.9209343125        0.3658894577
 C         -6.1360672809        1.0488693636        1.6151057085
 H         -5.0973426610        0.7470491935        1.7611464089
 H         -6.4178962208        1.6654081245        2.4728243379
 C         -7.0301292113       -0.1887553161        1.6161168296
 H         -6.9171324315       -0.6699703952        2.5910014601
 H         -8.0726209612        0.1226985541        1.5189550392
 C         -6.7323629015       -1.2295892472        0.5352057906
 H         -7.1148622613       -0.9109308680       -0.4306644297
 H         -7.2791044317       -2.1393269668        0.8003642214
 C         -5.2637019016       -1.6251378477        0.4173933711
 H         -4.8941780217       -1.9278237869        1.4037455814
 H         -5.1954324417       -2.5264894283       -0.2038243180
 H         -5.6419061603        2.8226655125        0.5443311869
 H         -7.2696478904        2.2230119626        0.2088605973
 H         -5.5172497703        2.0503398204       -1.6580132523
 H         -6.4637356707        0.6001796910       -1.3492580011
 O         -3.3874860405        1.2765391102       -1.1994312914
 C         -2.0718632107        0.8595791799       -1.1155960308
 O         -1.2450563604        1.6567408092       -1.5984575215
 H          2.0282307292        0.3409074287       -1.1002391699
 C          1.6430932492        0.6503163597       -0.1434819502
 C          0.4483924390        0.1419293005        0.3401244101
 C         -0.0091704710        0.5810583518        1.5811678896
 C          0.6938613292        1.5248971423        2.3021142588
 C          1.8780322294        2.0440081215        1.8074893785
 C          2.3502522994        1.6048885302        0.5777270289
 N          3.5435436396        2.1201544294        0.0499659586
 S          4.6251380594        1.1052079483       -0.7142037503
 O          5.8909405196        1.8024833980       -0.6352853209
 O          4.1692564994        0.7779740772       -2.0410254501
 C          4.6721616788       -0.3606668107        0.3019881410
 C          5.0590250087       -0.2282427296        1.6214721109
 C          5.0780514383       -1.3521551489        2.4305408920
 C          4.7123975880       -2.5842674493        1.9095735331
 C          4.3331435681       -2.7016556404        0.5818134732
 C          4.3102824685       -1.5795956811       -0.2315607779
 H          4.0179783386       -1.6262652520       -1.2676588379
 H          4.0534715779       -3.6610668307        0.1763458240
 H          4.7250250777       -3.4584862687        2.5412097339
 H          5.3760112582       -1.2651979880        3.4629631819
 H          5.3489968290        0.7413452906        1.9921901301
 H          4.0125273397        2.7915318998        0.6395035380
 H          2.4242845095        2.7916637618        2.3621373479
 H          0.3196294192        1.8612996733        3.2572024985
 H         -0.9368263112        0.1788518024        1.9649811099
 C         -0.3828617212       -0.8604447099       -0.4199157991
 H         -0.4292510916       -1.7895678994        0.1674627218
 C          0.1499338188       -1.1825617114       -1.7995556687
 C          1.1841569485       -2.2507021518       -1.9829445576
 C         -0.2256689115       -2.4883840419       -2.4315362875
 H         -0.4373601714       -2.5069721928       -3.4901909475
 H         -0.8418489518       -3.1592090111       -1.8508054370
 H          1.9431555887       -2.1033130328       -2.7370394476
 H          1.5264903783       -2.7680761811       -1.0997533771
 H          0.1935184391       -0.3118342920       -2.4450387495
 O         -2.6442167318       -2.3037897184        0.5383397520
