  62
        -98.94464663
 C         -1.9785593264       -0.7718057881        0.5671022247
 C         -1.9919153357       -0.0824775600       -0.6691462151
 C         -2.1257604275        1.3758358587       -0.5829938903
 C         -2.1574022240        1.9744775649        0.6209601330
 C         -2.2475916559        3.4557941936        0.8714359526
 C         -3.6772301950        4.0134920755        0.8278966864
 C         -4.3013878142        4.0980924193       -0.5655603476
 H         -5.2063576290        4.7019165251       -0.4743720933
 H         -3.6215665277        4.6269915517       -1.2340596139
 C         -4.6734250322        2.7398638356       -1.1762503993
 H         -4.6998786025        1.9821239958       -0.3898695516
 H         -5.6772879802        2.7949847312       -1.6030558579
 C         -3.7345759889        2.2658964396       -2.2857631673
 H         -4.0684283663        1.2805140148       -2.6201135623
 H         -3.7958624218        2.9494362814       -3.1353708659
 C         -2.2649678533        2.1470364442       -1.8603459744
 H         -1.8185442220        3.1359734581       -1.7569282366
 H         -1.7211925566        1.5996004123       -2.6342358762
 H         -4.3092958351        3.4005529017        1.4745011007
 H         -3.6457019103        5.0202597561        1.2507457750
 H         -1.6236495570        3.9843080957        0.1498407875
 H         -1.8396920883        3.6253312541        1.8705137093
 O         -2.0916055941        1.2788552940        1.7889383746
 C         -2.0110072321       -0.1043170114        1.7896597882
 O         -1.9773043604       -0.6171931720        2.9287597569
 O         -1.9028180637       -0.6547311343       -1.7872154894
 C         -1.8276216477       -2.2823600165        0.5850276685
 C         -0.5412954689       -2.6575326516       -0.1113454153
 C         -0.4384181826       -3.6859777844       -1.0385151835
 C          0.7698748921       -3.9438753425       -1.6633690581
 C          1.8896866761       -3.1822150882       -1.3869112334
 C          1.8013355151       -2.1641206375       -0.4430336727
 C          0.5979977469       -1.9247239337        0.1973748719
 H          0.5393744229       -1.1295560758        0.9278857778
 N          2.9259042467       -1.3874076032       -0.1123059597
 S          2.6896857271        0.2217603597        0.3401153624
 O          2.3382411574        0.2636111270        1.7387368006
 O          1.7829035169        0.8810000284       -0.5727078381
 C          4.3478048684        0.8439043989        0.1257052052
 C          4.6717470322        1.5400694112       -1.0232469199
 C          5.9737097240        1.9850562733       -1.1928841768
 C          6.9249510169        1.7240959594       -0.2181984158
 C          6.5846682527        1.0245010756        0.9302693866
 C          5.2845995964        0.5784212396        1.1068621337
 H          4.9696532401        0.0396064550        1.9852675211
 H          7.3258704967        0.8255602864        1.6873129272
 H          7.9372898389        2.0706034738       -0.3530908219
 H          6.2398911107        2.5320154838       -2.0829418157
 H          3.8962733177        1.7239876675       -1.7496159988
 H          3.6742203847       -1.4755818340       -0.7866260559
 H          2.8242407328       -3.3700670706       -1.8931385934
 H          0.8353273528       -4.7400916743       -2.3893262972
 H         -1.3066739217       -4.2755476299       -1.2831995201
 H         -1.7409037712       -2.5684677273        1.6441106555
 C         -3.0542335714       -2.9460146211       -0.0052841948
 C         -3.4724765536       -4.3091990287        0.4552404948
 C         -4.2717409346       -3.1058492865        0.8530150163
 H         -5.2423791766       -2.9567194970        0.4045068624
 H         -4.2043998013       -2.7582314288        1.8739970117
 H         -3.8995265598       -4.9887648718       -0.2666974494
 H         -2.8692451785       -4.7877218105        1.2118559961
 H         -3.2055474620       -2.6845351682       -1.0462615088
