  62
        -98.94482642
 C          2.0069689739        1.3696086977        0.2857374020
 C          2.6329915383        0.7468882198       -0.8213601796
 C          3.7874067349       -0.1029125919       -0.5020598002
 C          4.1932548653       -0.2323086535        0.7741618271
 C          5.3684591678       -1.0414278854        1.2521599783
 C          5.0568644616       -2.5290524037        1.4659860683
 C          4.8652528146       -3.3439315977        0.1861502792
 H          5.7171775556       -3.1848975298       -0.4755390643
 H          4.8679505840       -4.3973558695        0.4732147334
 C          3.5624138623       -3.0417403517       -0.5679579159
 H          3.0807064689       -3.9791228629       -0.8556476311
 H          2.8691755962       -2.5194804674        0.0958976749
 C          3.7432739654       -2.2157000908       -1.8417207677
 H          2.7552519340       -2.0285152085       -2.2708394979
 H          4.3235795923       -2.7876345666       -2.5691076561
 C          4.4301897156       -0.8609852068       -1.6236801709
 H          5.4930239253       -1.0041851094       -1.4301841553
 H          4.3148795342       -0.2685741382       -2.5345256707
 H          4.1628373751       -2.6134369671        2.0884434776
 H          5.8911933129       -2.9601232654        2.0240424646
 H          5.6724032521       -0.6128507095        2.2096311636
 H          6.1942780205       -0.9392210357        0.5477847052
 O          3.5681277381        0.3912159079        1.8087104167
 C          2.4481895366        1.1800163183        1.5944072453
 O          1.9407558923        1.6466049299        2.6354441119
 O          2.2519695054        0.8912506064       -2.0111581475
 C          0.7905513527        2.2508207141        0.0668819825
 C         -0.3042064987        1.4594487614       -0.6078641498
 C         -1.0374828881        1.9324964282       -1.6875747677
 C         -2.0247791822        1.1496418596       -2.2621973030
 C         -2.3098512272       -0.1098318665       -1.7696662534
 C         -1.5981332351       -0.5831532958       -0.6738280982
 C         -0.6121443223        0.2031201812       -0.0990351010
 H         -0.0566823871       -0.1691736913        0.7536286273
 N         -1.8967467285       -1.8521496112       -0.1494469153
 S         -3.5096868448       -2.2544257373        0.0476602120
 O         -3.5334193302       -3.1974853034        1.1439323865
 O         -4.0465257713       -2.7317930563       -1.2023059179
 C         -4.3221671753       -0.7342096248        0.5094296393
 C         -3.8974840430       -0.0906053609        1.6549856431
 C         -4.4951487995        1.1070667824        2.0116792164
 C         -5.5030199006        1.6379434399        1.2209635130
 C         -5.9225258255        0.9766182687        0.0774031993
 C         -5.3263199799       -0.2205147165       -0.2855540960
 H         -5.6186264451       -0.7659047659       -1.1680410641
 H         -6.7078465738        1.3907207455       -0.5340596139
 H         -5.9633506684        2.5724131088        1.5003517603
 H         -4.1690338791        1.6220872421        2.9011712133
 H         -3.1141032844       -0.5301622809        2.2519781125
 H         -1.3539696739       -2.1003618427        0.6640810064
 H         -3.0612600478       -0.7387880775       -2.2187631628
 H         -2.5771479736        1.5246730781       -3.1099802341
 H         -0.8289388332        2.9103970846       -2.0884974501
 H          0.4365794989        2.5352272908        1.0687224678
 C          1.1839339703        3.5055625449       -0.6844582622
 C          0.4287000941        4.7819826593       -0.4712866657
 C          1.8156511291        4.6316384410        0.0755123075
 H          2.6193640726        5.1817165911       -0.3904758624
 H          1.9375799791        4.5025134743        1.1414378499
 H          0.2815074866        5.4412163833       -1.3133680119
 H         -0.3941285185        4.7658108353        0.2271010263
 H          1.5683721482        3.2933601080       -1.6753266504
