  62
        -98.93494557
 C         -2.2725729647       -0.5838030940        0.1015268325
 C         -3.5350694749       -1.1456971720        0.3991436747
 C         -4.6484771538       -0.1981917826        0.5793957630
 C         -4.4061046159        1.1197371792        0.4700152880
 C         -5.4012971621        2.2433053680        0.5632505656
 C         -5.9207752331        2.6254044078       -0.8332784502
 C         -7.1272992744        1.8202380843       -1.3144987627
 H         -8.0075291285        2.1158163914       -0.7398097907
 H         -7.3075931872        2.0970111370       -2.3557890660
 C         -6.9756635170        0.2992067443       -1.2292762052
 H         -7.6965943409       -0.1479338573       -1.9164533502
 H         -5.9806599195        0.0090110834       -1.5717541158
 C         -7.2252021500       -0.2539609524        0.1816725098
 H         -7.6805258338        0.5243901871        0.7935945311
 H         -7.9499884519       -1.0687827404        0.1272368297
 C         -5.9851996500       -0.8124791036        0.8954088408
 H         -5.8675163472       -1.8715705526        0.6456264780
 H         -6.1440848658       -0.7635592008        1.9777912447
 H         -6.1995549347        3.6811045315       -0.8266049046
 H         -5.0946571163        2.5107047123       -1.5399764024
 H         -6.2181308096        1.9811980149        1.2289856757
 H         -4.8657296803        3.0982928166        0.9810250625
 O         -3.1689793739        1.6201189511        0.1948145688
 C         -2.0764350611        0.7926943660        0.0001106843
 O         -1.0128998540        1.3933833196       -0.2482587787
 O         -3.7255699491       -2.3872777793        0.5091651304
 C         -1.0868173990       -1.5068963620       -0.1101347179
 C          0.0138183441       -1.1652268765        0.8631536749
 C         -0.2922328761       -1.0937357205        2.2203228928
 C          0.6790291518       -0.7695621256        3.1463881810
 C          1.9748862742       -0.5052853395        2.7384827031
 C          2.2953010803       -0.5879379864        1.3891342793
 C          1.3186604169       -0.9275406510        0.4620519832
 H          1.5907474415       -0.9783700691       -0.5779109000
 N          3.6209089104       -0.3749693103        0.9634866602
 S          3.9311117271        0.5168485254       -0.4368950678
 O          3.4015601650        1.8570988540       -0.3123487377
 O          3.5104155750       -0.2409235739       -1.5871609382
 C          5.7136902411        0.5558198714       -0.3715265788
 C          6.4063593291       -0.5947131962       -0.6984234421
 C          7.7902602731       -0.5856876497       -0.6304378460
 C          8.4553641187        0.5671201556       -0.2392618132
 C          7.7470203523        1.7144878085        0.0836692255
 C          6.3621710611        1.7114523288        0.0194537705
 H          5.7696463792        2.5811202365        0.2545890652
 H          8.2665453149        2.6101000578        0.3841944859
 H          9.5327038000        0.5721616941       -0.1882110727
 H          8.3446368874       -1.4751349801       -0.8829429576
 H          5.8473586953       -1.4632027047       -1.0049075935
 H          4.2018281818       -0.0232722476        1.7142190479
 H          2.7319988660       -0.2390760414        3.4607727153
 H          0.4253098086       -0.7120700142        4.1943827554
 H         -1.3086293784       -1.2874366249        2.5362944854
 H         -1.4551579254       -2.5165569320        0.1263648213
 C         -0.6474570826       -1.4773178388       -1.5584970590
 C          0.0282662300       -2.6690268096       -2.1656930539
 C         -1.3750470398       -2.3216067897       -2.5597300803
 H         -1.5512227886       -1.9158028880       -3.5446826423
 H         -2.1788017369       -2.9424995238       -2.1916093847
 H          0.8230809992       -2.4991622664       -2.8764760414
 H          0.1780557918       -3.5316193677       -1.5341497024
 H         -0.3238655732       -0.4913566555       -1.8768550206
