  62
        -98.94055967
 C         -1.7407915779       -0.8161988788        0.1637963121
 C         -3.0416095068       -1.0336216864        0.6723135847
 C         -3.9807253976        0.0986564115        0.5880845390
 C         -3.5681525075        1.2596383243        0.0452930655
 C         -4.2802033618        2.5844288219       -0.1332606279
 C         -5.7957362711        2.6847111117        0.0184442851
 C         -6.5963126323        1.9550658894       -1.0596008574
 H         -7.6548073268        2.0123977377       -0.7965077615
 H         -6.4608559717        2.4801277054       -2.0085815689
 C         -6.2192457285        0.4929340743       -1.2851242855
 H         -6.8635529080        0.0999293116       -2.0763691340
 H         -5.1913813537        0.4302426480       -1.6485878603
 C         -6.3716835545       -0.4173793329       -0.0680558697
 H         -6.2274913478       -1.4466276042       -0.4077326873
 H         -7.3858676366       -0.3356189217        0.3276728467
 C         -5.3757048082       -0.1649489745        1.0772527961
 H         -5.7142972564        0.6391232010        1.7262436549
 H         -5.3213202331       -1.0742769627        1.6829723843
 H         -6.0449711087        3.7472127578       -0.0492002171
 H         -6.0988514863        2.3534816091        1.0072393873
 H         -3.9964265609        2.9416666203       -1.1282853560
 H         -3.8154058442        3.2699802650        0.5839220603
 O         -2.2954473172        1.4244194732       -0.4218797620
 C         -1.3589582745        0.4050673787       -0.3855180080
 O         -0.2498450007        0.7114226418       -0.8609397853
 O         -3.4031147093       -2.1251225737        1.1887449029
 C         -0.7294332757       -1.9468120144        0.2095922596
 C          0.4915624384       -1.5159134051        0.9828998622
 C          0.3261609155       -1.0462566617        2.2845548710
 C          1.4119799471       -0.6397759672        3.0342529894
 C          2.6882279530       -0.6844561023        2.4989489535
 C          2.8653826403       -1.1545112976        1.2044266165
 C          1.7722377001       -1.5765123678        0.4577257869
 H          1.9433356190       -1.9301943241       -0.5446152907
 N          4.1529368228       -1.2376502407        0.6398653822
 S          4.4811606165       -0.4400909706       -0.7960646114
 O          3.6270626157       -0.9373842126       -1.8419376829
 O          5.9036365185       -0.6182227551       -0.9941075315
 C          4.1456588269        1.2761845305       -0.4429950349
 C          5.2084670397        2.0976238641       -0.1169469157
 C          4.9598669765        3.4169264021        0.2230138142
 C          3.6556626268        3.8887654043        0.2416285150
 C          2.6016314509        3.0498068825       -0.0837883810
 C          2.8415741912        1.7283500735       -0.4301918472
 H          2.0277201369        1.0690482339       -0.6884234071
 H          1.5831250055        3.4047979148       -0.0729867620
 H          3.4586442691        4.9150436460        0.5093280626
 H          5.7794152635        4.0710135845        0.4738134308
 H          6.2052536911        1.6879547177       -0.1486635187
 H          4.8956357035       -1.0471360795        1.2986206841
 H          3.5391746626       -0.3629561248        3.0802941785
 H          1.2657647213       -0.2796351669        4.0413467826
 H         -0.6721180037       -1.0054336244        2.6989606589
 H         -1.2213076062       -2.7565750298        0.7689045937
 C         -0.4229029037       -2.4412281239       -1.1880778713
 C          0.0368247361       -3.8514567838       -1.4012050894
 C         -1.3404305669       -3.4397467067       -1.8246652598
 H         -1.5514656971       -3.3472363620       -2.8795816779
 H         -2.1805813805       -3.7844655343       -1.2394728688
 H          0.7766153803       -4.0400397146       -2.1648012267
 H          0.1324110224       -4.4823414189       -0.5303663332
 H         -0.0061314460       -1.6698135818       -1.8271487637
