  62
        -98.93621833
 C         -2.4175522857       -0.5427951291        0.2058407648
 C         -2.7939566774        0.8170362019        0.0550816641
 C         -4.1459806489        1.0722566144       -0.4567558209
 C         -4.9331298641        0.0279478802       -0.7720861134
 C         -6.3499651699        0.1349908969       -1.2552921362
 C         -7.3405465607        0.0971216760       -0.0832335414
 C         -6.9881938736        1.0562401404        1.0537855172
 H         -7.7704233854        0.9655408973        1.8105527312
 H         -6.0536956666        0.7316941333        1.5173964485
 C         -6.8570972188        2.5250738565        0.6274125211
 H         -7.3415084371        2.6753943949       -0.3379873393
 H         -7.3814923010        3.1489045581        1.3543174700
 C         -5.4178178492        3.0389911311        0.5564116061
 H         -4.8985402259        2.8069359161        1.4898534650
 H         -5.4495233456        4.1278002893        0.4626315262
 C         -4.5743636707        2.5047530883       -0.6082323655
 H         -5.1114623665        2.6489229858       -1.5479783361
 H         -3.6508500859        3.0900422616       -0.6462482677
 H         -8.3358547539        0.3322189132       -0.4645260447
 H         -7.3612696821       -0.9180496450        0.3196393279
 H         -6.4673673885        1.0610834690       -1.8145924183
 H         -6.5518677967       -0.7082885280       -1.9177187371
 O         -4.5336546411       -1.2602447019       -0.6392102011
 C         -3.2742716773       -1.5874278418       -0.1456719812
 O         -3.0707941530       -2.8125903706       -0.0835688609
 O         -2.0295921979        1.7776150701        0.3455850326
 C         -1.0278819822       -0.8001097338        0.7581064445
 C         -0.0015263127       -0.9243926119       -0.3386365811
 C         -0.2222024645       -1.7193124391       -1.4591145499
 C          0.7524254629       -1.8416221214       -2.4327213584
 C          1.9679647973       -1.1935873344       -2.3003408029
 C          2.1942727618       -0.3898210084       -1.1892993386
 C          1.2053557622       -0.2511366321       -0.2251121661
 H          1.3899831719        0.3905893103        0.6239662366
 N          3.4073435546        0.2962073211       -1.0280233167
 S          4.0160689564        0.4545912811        0.5403108136
 O          3.8258566931       -0.7802833866        1.2663486809
 O          3.4550835279        1.6395527909        1.1391292931
 C          5.7457390002        0.7146339833        0.1962240483
 C          6.6123623001       -0.3614363121        0.2340811973
 C          7.9500774073       -0.1548993536       -0.0643795762
 C          8.3949808810        1.1159629719       -0.3964958417
 C          7.5131132557        2.1861871696       -0.4296188641
 C          6.1744687613        1.9871614538       -0.1315011197
 H          5.4540270788        2.7886254519       -0.1351614430
 H          7.8633271428        3.1731545160       -0.6855386239
 H          9.4364029449        1.2741364209       -0.6280631397
 H          8.6387708498       -0.9838537254       -0.0360205624
 H          6.2230762542       -1.3293061549        0.5065677813
 H          4.1177787985        0.0084794232       -1.6868782722
 H          2.7321348890       -1.3029035524       -3.0547605428
 H          0.5687588882       -2.4619226539       -3.2971669912
 H         -1.1588004064       -2.2485000390       -1.5511104387
 H         -0.7786884168        0.1098265845        1.3290890678
 C         -0.9673421939       -1.9684594967        1.7329898491
 C         -0.3342769683       -3.2850824332        1.4107770273
 C          0.3350213925       -2.3522798188        2.3724472116
 H          0.3371058580       -2.6049943192        3.4222898967
 H          1.2308434394       -1.8441607083        2.0433597973
 H         -0.8119682334       -4.1749021249        1.7910597055
 H          0.1057346746       -3.4130167905        0.4345672666
 H         -1.8468629165       -2.0052620532        2.3687389464
