  62
        -98.94110217
 C          1.6771316563        0.3629575977        0.9499902649
 C          2.9028500635        0.9949777873        0.6277240908
 C          4.0611769796        0.1024835558        0.4602255202
 C          3.9072090003       -1.2251559126        0.6068560052
 C          4.9882922051       -2.2453309818        0.4007526698
 C          5.0102233637       -2.7461988600       -1.0502314947
 C          4.9951933494       -1.6263915076       -2.0908788115
 H          5.0447232149       -2.0968620740       -3.0753007294
 H          4.0395645637       -1.0998374204       -2.0346925599
 C          6.1401703528       -0.6135296435       -1.9508848110
 H          6.9386390387       -1.0384498168       -1.3414719092
 H          6.5575803700       -0.4177145443       -2.9409034391
 C          5.7230626820        0.7381346351       -1.3683725936
 H          6.5477538884        1.4406609233       -1.5157200676
 H          4.8620091179        1.1245196720       -1.9195911220
 C          5.3794661930        0.7429501230        0.1265341701
 H          5.2953712463        1.7864109524        0.4438379827
 H          6.1885943696        0.2765082438        0.6920302408
 H          5.9004750219       -3.3623227535       -1.1891179560
 H          4.1321347654       -3.3754539322       -1.2125632116
 H          4.7950714147       -3.0898368254        1.0643176713
 H          5.9497584223       -1.8058864824        0.6590868932
 O          2.7164209564       -1.7979070843        0.9160153438
 C          1.5811815001       -1.0264247132        1.0866037095
 O          0.5569718510       -1.6823750703        1.3626764334
 O          3.0520990691        2.2373508103        0.4811877297
 C          0.3736208946        1.1167118832        1.1594484945
 C         -0.2938037989        1.4390978235       -0.1562903355
 C          0.2972869971        2.2882996760       -1.0858036779
 C         -0.3495892711        2.5802159695       -2.2723880666
 C         -1.5998903149        2.0526627482       -2.5443308496
 C         -2.1977243505        1.2011985080       -1.6227889145
 C         -1.5347733895        0.8902525138       -0.4439516133
 H         -1.9947760470        0.2151470501        0.2613417028
 N         -3.4556946850        0.6388281597       -1.8753018237
 S         -4.5447090275        0.3864283411       -0.6313544162
 O         -5.8323389162        0.3282222114       -1.2898503978
 O         -4.4075189340        1.3798536717        0.4076454216
 C         -4.1428615437       -1.2308585597       -0.0080087118
 C         -3.9288507093       -1.4123715027        1.3433583418
 C         -3.6354906488       -2.6830450341        1.8117369961
 C         -3.5636526871       -3.7448967766        0.9241345017
 C         -3.7857280422       -3.5471282375       -0.4302778030
 C         -4.0796397842       -2.2791690833       -0.9042104626
 H         -4.2610633468       -2.0870898768       -1.9485979543
 H         -3.7276116075       -4.3767312139       -1.1165018520
 H         -3.3306904198       -4.7318311109        1.2916133892
 H         -3.4582319661       -2.8379963396        2.8639311525
 H         -3.9887956637       -0.5580740981        1.9997946118
 H         -3.9074163247        0.9581917991       -2.7195009264
 H         -2.1098807556        2.2950853721       -3.4644492988
 H          0.1188521325        3.2371768581       -2.9898665379
 H          1.2678789486        2.7081524918       -0.8711157196
 H         -0.2851956252        0.4218309933        1.6979782197
 C          0.5201943136        2.3744494927        1.9952273385
 C         -0.7157432382        2.9995545519        2.5668078178
 C          0.2637487774        2.3117204894        3.4690806837
 H          0.8732701851        2.9159435441        4.1242737753
 H         -0.0139691753        1.3558819757        3.8894171678
 H         -0.7779398045        4.0765691573        2.6021545027
 H         -1.6612220850        2.5155448217        2.3677440006
 H          1.3058472038        3.0335801367        1.6514389515
