  62
        -98.94585046
 C          2.0648627699        1.0837768382       -0.4700958917
 C          1.0781715495        1.4821096581       -1.4082384913
 C          0.2354159402        2.6210226986       -1.0340903614
 C          0.3984942812        3.1941098493        0.1718410282
 C         -0.3856265880        4.3580425899        0.7144027881
 C         -1.7327268277        3.9564453008        1.3310044692
 C         -2.8266828785        3.6026488407        0.3227410601
 H         -3.7711060082        3.5815644114        0.8702702307
 H         -2.8994850587        4.3922605603       -0.4265552403
 C         -2.6299284895        2.2461826602       -0.3683468193
 H         -1.9288879294        1.6427333502        0.2138258406
 H         -3.5782821998        1.7021061106       -0.3781154584
 C         -2.1454949004        2.3346587292       -1.8152417897
 H         -2.0206552911        1.3178454489       -2.1918962792
 H         -2.9060002906        2.8295809592       -2.4237825094
 C         -0.8168045903        3.0784178685       -2.0002969309
 H         -0.4486934610        2.8719624178       -3.0086067011
 H         -0.9721103397        4.1527377287       -1.8988654914
 H         -1.5705776576        3.1069142911        1.9999740495
 H         -2.0804341570        4.7978044713        1.9355793389
 H          0.2304152427        4.8105984201        1.4945987874
 H         -0.5476710982        5.0950928695       -0.0731437823
 O          1.3414372516        2.7777813094        1.0531987378
 C          2.1780822510        1.7010216189        0.7772862879
 O          2.9624407715        1.4353809291        1.7066805875
 O          0.9179508585        0.9065455075       -2.5194046208
 C          2.8980283192       -0.1283501823       -0.8546346415
 C          2.1069514488       -1.3847183919       -0.5827136603
 C          2.1082777578       -2.4564694324       -1.4682959797
 C          1.3336987275       -3.5762061419       -1.2192682485
 C          0.5043461382       -3.6269541009       -0.1125574480
 C          0.4858410992       -2.5538962704        0.7701144514
 C          1.3155219995       -1.4647093509        0.5536203403
 H          1.2994611103       -0.6480594005        1.2586482698
 N         -0.4051292800       -2.5027244794        1.8639555620
 S         -1.5526734496       -1.2773498790        1.7784330120
 O         -0.9099005591        0.0098811407        1.7975650509
 O         -2.4762311490       -1.5515580080        2.8577447928
 C         -2.3587233107       -1.5635871896        0.2125804027
 C         -3.5537014210       -2.2570771591        0.1983925839
 C         -4.1418336919       -2.5586284995       -1.0191248256
 C         -3.5186868925       -2.1795142705       -2.1987670262
 C         -2.3171340722       -1.4891499009       -2.1679963874
 C         -1.7296119413       -1.1728031505       -0.9527393979
 H         -0.8012368211       -0.6250207609       -0.9066303788
 H         -1.8223386027       -1.1908670717       -3.0790898879
 H         -3.9704656933       -2.4210303508       -3.1478462958
 H         -5.0786465122       -3.0914992692       -1.0445584947
 H         -3.9987327105       -2.5337836184        1.1405688843
 H         -0.8742593503       -3.3797703791        2.0474589428
 H         -0.1326435120       -4.4809488906        0.0613224329
 H          1.3506530367       -4.4047103423       -1.9103301581
 H          2.7048124673       -2.3994665131       -2.3666479401
 H          3.0279236685       -0.0580777230       -1.9473300817
 C          4.2836329896       -0.1571875226       -0.2303916724
 C          4.6380409099       -1.0508444721        0.9161909479
 C          5.1901259689       -1.3328922531       -0.4470471023
 H          6.2377225089       -1.1464420436       -0.6280654531
 H          4.7924125782       -2.1836683532       -0.9783868716
 H          5.2907545106       -0.6528995819        1.6777260472
 H          3.8700800899       -1.7017298515        1.3054991387
 H          4.7476643300        0.8234012972       -0.2335590933
