  62
        -98.94624039
 C         -1.3708527010       -1.1053069016       -0.1275363257
 C         -2.4590123522       -1.0854799477        0.7818190939
 C         -3.2178578452        0.1673214823        0.8506546544
 C         -2.8365699551        1.2181780366        0.1020462263
 C         -3.4970118160        2.5700967193        0.0762080662
 C         -4.7187711932        2.6523766403       -0.8494888812
 C         -5.9697123285        1.9308442437       -0.3468210369
 H         -6.1899974692        2.2525554631        0.6715530189
 H         -6.8008686809        2.2544806565       -0.9766231928
 C         -5.8806972204        0.3992065833       -0.3972991937
 H         -5.0630708167        0.1029985893       -1.0584281428
 H         -6.8005266401       -0.0053814303       -0.8256987851
 C         -5.6825507863       -0.2687946102        0.9633177834
 H         -5.5927417930       -1.3467434400        0.8063381132
 H         -6.5599102284       -0.0925873112        1.5897289852
 C         -4.4365794503        0.2054905044        1.7224615244
 H         -4.5947829194        1.2102775712        2.1135081112
 H         -4.2671399674       -0.4742939616        2.5611099590
 H         -4.4415759936        2.2587187721       -1.8300369213
 H         -4.9624233463        3.7101767946       -0.9730080831
 H         -2.7486287965        3.2764068139       -0.2879294255
 H         -3.7855029510        2.8579124166        1.0875258044
 O         -1.7636886078        1.1722811928       -0.7289172848
 C         -1.0123284092        0.0156411720       -0.8779623138
 O         -0.0800407256        0.1249541094       -1.6963240344
 O         -2.7799951817       -2.0690578727        1.5002360481
 C         -0.5579860060       -2.3864778542       -0.2292312514
 C          0.7850414548       -2.1260304634        0.4039188274
 C          0.9368534206       -2.2758912626        1.7792890597
 C          2.1310056136       -1.9552277197        2.3984828471
 C          3.1932197990       -1.4593216832        1.6619662616
 C          3.0442410808       -1.2926870449        0.2918438292
 C          1.8570714201       -1.6461873647       -0.3333812949
 H          1.7552402113       -1.5014554854       -1.3969213550
 N          4.1041897806       -0.7390283534       -0.4609312958
 S          4.5238581161        0.8354325274       -0.0687434035
 O          5.3631861864        1.2923743729       -1.1531476691
 O          5.1235568183        0.8406576268        1.2422414119
 C          2.9979995017        1.7586518432       -0.0403184923
 C          2.2330607081        1.7628746914        1.1086683485
 C          1.0313006271        2.4515355625        1.1080851271
 C          0.6207271752        3.1237422414       -0.0318705429
 C          1.3971856758        3.1052675657       -1.1788283223
 C          2.5950452644        2.4109887532       -1.1873605385
 H          3.2286489945        2.3726999611       -2.0590920557
 H          1.0671409770        3.6193748554       -2.0671358432
 H         -0.3147240305        3.6606439388       -0.0273745785
 H          0.4162532132        2.4562832849        1.9944900436
 H          2.5876601269        1.2371923150        1.9802830580
 H          3.9354507736       -0.7876319713       -1.4566805940
 H          4.1225023190       -1.1757360656        2.1290546442
 H          2.2354945625       -2.0848147861        3.4651583696
 H          0.0988910987       -2.6340166491        2.3606541853
 H         -1.0924480837       -3.1193015966        0.3896274573
 C         -0.4754037468       -2.9139376858       -1.6461463552
 C          0.0066282526       -4.3143317856       -1.8758225869
 C         -1.4366307282       -3.9736088572       -2.0906373855
 H         -1.8134891838       -3.9357747177       -3.1018241746
 H         -2.1583366702       -4.3293304760       -1.3699712581
 H          0.6227543669       -4.5139794029       -2.7391936547
 H          0.2657346307       -4.8998400929       -1.0066595712
 H         -0.2047294707       -2.1596913660       -2.3744378013
