  62
        -98.93894960
 C         -2.3405239026       -1.2693758798       -0.1152927893
 C         -3.2520703845       -0.7184159645        0.8199097548
 C         -4.0628579913        0.4338743091        0.3840924725
 C         -3.8990899494        0.8989239025       -0.8680686160
 C         -4.5701451412        2.0756721879       -1.5252415531
 C         -3.9997244504        3.4219312647       -1.0520269706
 C         -3.7938477842        3.5367404015        0.4560345140
 H         -3.2983036057        4.4917495484        0.6503137423
 H         -3.1125508460        2.7494474708        0.7849035922
 C         -5.0702150239        3.4922628964        1.2931932225
 H         -5.7339480467        4.2994756370        0.9758268253
 H         -4.7827817135        3.6867050020        2.3295608621
 C         -5.8510956597        2.1763967200        1.2573436907
 H         -6.4337777126        2.0888274293        0.3443011376
 H         -6.5689917283        2.2026546317        2.0821710436
 C         -5.0006041415        0.9265932588        1.4597829874
 H         -5.6658231819        0.0825632454        1.6777233546
 H         -4.3890122437        1.0501730041        2.3607448540
 H         -4.6647281923        4.2171602927       -1.3934046470
 H         -3.0277242618        3.5650055072       -1.5314133909
 H         -5.6432717650        2.0325608877       -1.3648865254
 H         -4.3891290032        1.9798836719       -2.5981957839
 O         -3.0128984649        0.3361525437       -1.7370731198
 C         -2.2115196117       -0.7377889120       -1.3974737875
 O         -1.4605333802       -1.1092823868       -2.3230852712
 O         -3.3889256762       -1.1724987960        1.9876019730
 C         -1.4850746235       -2.4345168745        0.3582983979
 C         -0.1038733726       -1.9228798028        0.6895395144
 C          0.2690636250       -1.7017313295        2.0108662147
 C          1.5087854442       -1.1671347730        2.3138424811
 C          2.3967860183       -0.8326381691        1.3068703471
 C          2.0278121459       -1.0378762250       -0.0158101451
 C          0.7943025435       -1.5953938679       -0.3164078791
 H          0.5075747806       -1.7279429162       -1.3487068396
 N          2.9135090860       -0.6676617196       -1.0491137027
 S          3.3623320665        0.9544918125       -1.0760778655
 O          2.3496171580        1.7960522719       -0.4791698745
 O          3.7078932729        1.2380470555       -2.4522251285
 C          4.8458572184        0.9914481151       -0.0908980009
 C          5.8952127738        0.1750692903       -0.4657578080
 C          7.0588123185        0.1938889172        0.2863769044
 C          7.1540198946        1.0257003736        1.3923358642
 C          6.0929010522        1.8417098050        1.7534554156
 C          4.9254259291        1.8269754042        1.0058409849
 H          4.0715991836        2.4382188093        1.2514005952
 H          6.1684274312        2.4878048877        2.6133049182
 H          8.0605594298        1.0380780384        1.9765287300
 H          7.8860055742       -0.4392147767        0.0087688661
 H          5.7800859838       -0.4527988464       -1.3333859690
 H          2.5736897065       -0.9353928052       -1.9630604485
 H          3.3596104500       -0.4047958326        1.5343888683
 H          1.7846371049       -1.0032130995        3.3443791847
 H         -0.4327049205       -1.9331390771        2.7992205451
 H         -1.9522317611       -2.7708617673        1.2933934022
 C         -1.4598641580       -3.5965534825       -0.6130334614
 C         -1.0100596548       -4.9396374196       -0.1237564921
 C         -2.4534084497       -4.7062242848       -0.4517074693
 H         -2.8631696922       -5.1621629377       -1.3404938696
 H         -3.1572949786       -4.6321748880        0.3643248887
 H         -0.4255738650       -5.5594848039       -0.7860409453
 H         -0.7345696328       -5.0238126347        0.9164936922
 H         -1.1982318722       -3.3135363066       -1.6242210870
