  62
        -98.93718716
 C         -1.9785384537       -0.9850933464        0.3732695479
 C         -2.6332991807        0.0867503623        1.0309951422
 C         -4.0616856061        0.2884310055        0.7345706418
 C         -4.6746106175       -0.5359414044       -0.1350139989
 C         -6.1134628535       -0.6051138747       -0.6023457270
 C         -7.0768813122        0.5482361187       -0.3354846585
 C         -6.7577345272        1.8360075327       -1.0941549467
 H         -6.9474638982        1.6687830450       -2.1573966509
 H         -7.4444736157        2.6133626871       -0.7521852161
 C         -5.3246929639        2.3446071902       -0.9577266175
 H         -4.6332137795        1.6165297670       -1.3869247900
 H         -5.2363876799        3.2591127935       -1.5506163331
 C         -4.8788339279        2.6711379172        0.4662958238
 H         -3.9066435707        3.1676921450        0.4010612713
 H         -5.5817676271        3.3722934798        0.9205633210
 C         -4.7171276547        1.4619565062        1.4037522865
 H         -5.6687657288        1.1717398724        1.8429353369
 H         -4.0545656842        1.7568372678        2.2229047000
 H         -8.0644242751        0.2104850923       -0.6613720651
 H         -7.1470716418        0.7414992372        0.7308800573
 H         -6.0673382593       -0.7908163107       -1.6801019946
 H         -6.5278757087       -1.5134752542       -0.1512878789
 O         -4.0065983439       -1.5595483861       -0.7382954583
 C         -2.6610603814       -1.8098238881       -0.5194822843
 O         -2.2270450125       -2.7766032200       -1.1746192787
 O         -2.0480448411        0.8436999960        1.8526453597
 C         -0.5059739639       -1.1846729318        0.6896391703
 C          0.3716761725       -0.5673683706       -0.3732027460
 C          0.3705115135       -1.0382060725       -1.6830282801
 C          1.1781422700       -0.4503097235       -2.6385895676
 C          2.0153281172        0.6008503719       -2.3058521003
 C          2.0260635330        1.0770767143       -1.0011285243
 C          1.2010371297        0.4960200418       -0.0467918790
 H          1.2115993707        0.8872120912        0.9595745387
 N          2.8695727477        2.1416848098       -0.6276828380
 S          3.9599588162        1.8884321295        0.6176972279
 O          3.2556490396        1.6745937024        1.8549184253
 O          4.8520180382        3.0248808439        0.5697659236
 C          4.8329802423        0.4094200084        0.1350963143
 C          6.0092613645        0.5328823959       -0.5784865849
 C          6.6484913447       -0.6136245807       -1.0216805785
 C          6.0961044308       -1.8576045428       -0.7561839853
 C          4.9130171784       -1.9645532038       -0.0413525560
 C          4.2725701061       -0.8219294840        0.4111851152
 H          3.3526421079       -0.8692737073        0.9703686920
 H          4.4810324769       -2.9307196039        0.1641351865
 H          6.5901510882       -2.7499112130       -1.1069256448
 H          7.5705626750       -0.5340719103       -1.5746309418
 H          6.4036546062        1.5198466240       -0.7590425475
 H          3.3436762890        2.5757829841       -1.4074946587
 H          2.6495494477        1.0553657886       -3.0520263279
 H          1.1619896654       -0.8199056063       -3.6526146540
 H         -0.2831688289       -1.8553760924       -1.9460547137
 H         -0.3376282899       -0.6266441564        1.6212361492
 C         -0.1293202586       -2.6338169881        0.9272110747
 C          1.0505224121       -2.9436552866        1.7969759682
 C         -0.3374685708       -3.2289510368        2.2857732221
 H         -0.6636058696       -4.2558373646        2.3531501337
 H         -0.7489461418       -2.5896559085        3.0536675176
 H          1.6821634266       -3.7774842402        1.5325456047
 H          1.5773332617       -2.1127742317        2.2434822964
 H         -0.3115321566       -3.2737309725        0.0741321738
