  62
        -98.94484802
 C         -2.0910158687       -0.9882943806        0.4938216499
 C         -2.2064655688       -0.2461297799       -0.7071233397
 C         -2.8780978789        1.0546722100       -0.5883652889
 C         -3.2707637388        1.4996678393        0.6184545614
 C         -3.9393700288        2.8169559891        0.9042996122
 C         -5.4581678289        2.8085140891        0.6818461523
 C         -5.9016780590        2.7754301899       -0.7812026877
 H         -6.9710492790        2.9948061599       -0.7961092775
 H         -5.3979038991        3.5720064502       -1.3295003373
 C         -5.6633817089        1.4323408903       -1.4851989285
 H         -5.4973923288        0.6536664999       -0.7373097289
 H         -6.5573556290        1.1523069106       -2.0466829886
 C         -4.4924408790        1.4305438410       -2.4680512286
 H         -4.7054695891        2.1127508514       -3.2938823282
 H         -4.3918784990        0.4233055712       -2.8798453991
 C         -3.1458077190        1.8239460607       -1.8464314184
 H         -2.3516116990        1.5804164211       -2.5566005586
 H         -3.1190033490        2.8957023606       -1.6496722378
 H         -5.8831351588        1.9528243788        1.2114879118
 H         -5.8582435889        3.7156627988        1.1405374228
 H         -3.7455976588        3.0416730585        1.9555595623
 H         -3.4834644589        3.5976837494        0.2944037426
 O         -3.0747340687        0.7863319686        1.7604858710
 C         -2.4920556686       -0.4699227413        1.7244373802
 O         -2.3769922485       -1.0133004320        2.8438793999
 H          0.2982944714       -0.8600043012        1.8181872598
 C          0.7791250814       -1.3183181407        0.9613610995
 C          0.0355173714       -2.1630165803        0.1448843991
 C          0.6595945513       -2.7422133996       -0.9506887113
 C          1.9887220413       -2.4654927494       -1.2249505013
 C          2.7203973913       -1.6150298598       -0.4164795608
 C          2.1063166614       -1.0376293105        0.6876613296
 N          2.8462252514       -0.1566261709        1.5125092100
 S          3.1873544912        1.3321311095        0.7966574608
 O          3.4509461613        2.2356672689        1.8962053513
 O          2.1417065211        1.7280126800       -0.1207754689
 C          4.7003710712        1.0249378701       -0.0876394595
 C          4.7157314311        1.0884205009       -1.4669403894
 C          5.9038153410        0.8338923514       -2.1345757497
 C          7.0472978411        0.5222111710       -1.4148061399
 C          7.0147958512        0.4643581802       -0.0292059599
 C          5.8309312613        0.7183248898        0.6446209003
 H          5.7600836413        0.6899226292        1.7190877203
 H          7.9061637813        0.2220617200        0.5265854099
 H          7.9695323111        0.3232466114       -1.9374615901
 H          5.9307393610        0.8778712320       -3.2114446396
 H          3.7993278210        1.3279186812       -1.9824243792
 H          2.3886457314        0.0142653386        2.3982751901
 H          3.7544032513       -1.3970129196       -0.6283200408
 H          2.4600103113       -2.9167738489       -2.0845174815
 H          0.1019809413       -3.3977913193       -1.5986530217
 C         -1.4212431486       -2.3533524106        0.4923677991
 H         -1.4765337985       -2.7178851812        1.5283335589
 C         -2.1525411186       -3.3242217601       -0.4080922314
 C         -2.0153126385       -4.7984535202       -0.1782942023
 C         -3.3024399785       -4.1052426605        0.1504741882
 H         -4.1606130185       -4.2806474602       -0.4806484118
 H         -3.5510915884       -3.9503666811        1.1906155583
 H         -1.9920389085       -5.4545965997       -1.0348643227
 H         -1.3898186084       -5.1191764206        0.6409560275
 H         -2.2399923587       -2.9683065195       -1.4273865712
 O         -1.7772134488       -0.6432726493       -1.8204366199
