  62
        -98.94044114
 C         -2.0485648833       -0.4583582528        0.1026123604
 C         -2.7188695979        0.7195474408        0.5227733184
 C         -4.0641610250        0.9335803012       -0.0186549365
 C         -4.5792513681        0.0446512618       -0.8870376900
 C         -5.9261646888        0.1322479894       -1.5520214380
 C         -7.0828403641       -0.4010954714       -0.6957677079
 C         -7.4823562857        0.4863185046        0.4837855565
 H         -7.6523523429        1.5037898470        0.1302231235
 H         -8.4352668091        0.1090725835        0.8602689944
 C         -6.4683179334        0.5023068370        1.6361616624
 H         -5.7906780192       -0.3487641074        1.5367899316
 H         -6.9944350890        0.3831910322        2.5860314897
 C         -5.6404227950        1.7837047051        1.7344930740
 H         -6.2953153038        2.6267309704        1.9660057347
 H         -4.9316849664        1.6717704980        2.5589779121
 C         -4.8427526489        2.1185499576        0.4673431220
 H         -5.5116557083        2.4804069641       -0.3134507374
 H         -4.1279858972        2.9089112986        0.7098175681
 H         -7.9500414969       -0.5088942226       -1.3513621746
 H         -6.8174242219       -1.3957161934       -0.3301212771
 H         -5.8638955242       -0.4711139553       -2.4602513147
 H         -6.1278926359        1.1658468204       -1.8351101426
 O         -3.8982636014       -1.0593445379       -1.2866164336
 C         -2.6252273703       -1.3490947001       -0.8041027553
 O         -2.1491029287       -2.4022343003       -1.2633576066
 O         -2.2108362134        1.5525638873        1.3213323826
 C         -0.6621248937       -0.6842775254        0.6776498371
 C          0.3893282035       -0.0576881199       -0.2015959542
 C          0.4400696697       -0.3237514005       -1.5662495947
 C          1.4187723663        0.2499680413       -2.3573847807
 C          2.3683415185        1.0923039113       -1.8055002418
 C          2.3297401426        1.3594141544       -0.4439208859
 C          1.3432726563        0.7860172990        0.3480488707
 H          1.3075782451        1.0124044836        1.4050799066
 N          3.3195374972        2.1871741524        0.1239133940
 S          4.9004086276        1.6540564446       -0.0658226877
 O          5.6567583387        2.3103935521        0.9758176543
 O          5.3272408003        1.9035027964       -1.4185340377
 C          4.7939972214       -0.1000125738        0.2365494168
 C          4.6766894888       -0.9709433518       -0.8278156242
 C          4.4815089460       -2.3186249727       -0.5708234232
 C          4.4073695849       -2.7697670009        0.7374791582
 C          4.5376262944       -1.8835077696        1.7959313360
 C          4.7257539372       -0.5340022157        1.5458313175
 H          4.8322967420        0.1863012721        2.3413882870
 H          4.4834672887       -2.2390909528        2.8123609542
 H          4.2436173474       -3.8171447714        0.9339472710
 H          4.3807823763       -3.0105986890       -1.3913776226
 H          4.7434257843       -0.5823574437       -1.8304617032
 H          3.1446360693        2.4116720377        1.0932997990
 H          3.1417839395        1.5429394300       -2.4063220432
 H          1.4435819820        0.0381737925       -3.4156358007
 H         -0.2928391697       -0.9894449365       -1.9965673318
 H         -0.6651324742       -0.1297326072        1.6296333256
 C         -0.3613502278       -2.1414564516        1.0021774508
 C          0.6753006986       -2.9527905390        0.2898948797
 C          0.9205356817       -2.4986647959        1.6951629669
 H          0.8929565851       -3.2269499554        2.4910030964
 H          1.6417718409       -1.7082482382        1.8407613587
 H          0.4521395930       -3.9925539113        0.1076927850
 H          1.2393697683       -2.4837806046       -0.5006801460
 H         -1.2508695888       -2.6756385054        1.3191359655
