  62
        -98.94096304
 C         -1.0904259982       -1.4751261951        0.0505096537
 C         -1.5428959602       -0.5027670597        0.9729785873
 C         -2.4818312547        0.5136760060        0.4673233641
 C         -2.8162268293        0.5042576924       -0.8366101566
 C         -3.7390715226        1.3934874367       -1.6448075190
 C         -4.5982821500        2.4504139643       -0.9568746384
 C         -5.7676354169        1.8832636027       -0.1502167815
 H         -6.5176659630        1.5070314017       -0.8505601226
 H         -6.2236930762        2.6969081558        0.4175334042
 C         -5.4211980273        0.7425193265        0.8035828080
 H         -5.0035750973       -0.0942141940        0.2402945259
 H         -6.3519625586        0.3919808118        1.2578267799
 C         -4.4623056600        1.1061966429        1.9344949854
 H         -4.3994247758        0.2451001448        2.6055808941
 H         -4.8676923105        1.9441099389        2.5052508911
 C         -3.0331482419        1.4606879222        1.4947096272
 H         -2.3801882626        1.3743585458        2.3680427595
 H         -2.9753377492        2.4884788847        1.1468917059
 H         -5.0188676159        3.0777727831       -1.7473379995
 H         -3.9814490949        3.0959980251       -0.3386120457
 H         -4.3907936937        0.7173846202       -2.2080507975
 H         -3.1025821310        1.8854530680       -2.3881913796
 O         -2.2733681875       -0.3942657141       -1.7088194711
 C         -1.4082954899       -1.3970987422       -1.3042246909
 O         -1.0103688641       -2.1252683199       -2.2317560139
 O         -1.1796409861       -0.4856777583        2.1805075269
 C         -0.1717207703       -2.5748196328        0.5594604062
 C          1.2357344289       -2.2369996637        0.1372699467
 C          1.8845032598       -2.8391691564       -0.9324045974
 C          3.1523946344       -2.4240544034       -1.3049106819
 C          3.7990730116       -1.4108984754       -0.6198533820
 C          3.1562228618       -0.8037662521        0.4514219075
 C          1.8867775983       -1.2168215627        0.8219755479
 H          1.3790950289       -0.7339157992        1.6471863276
 N          3.8043625742        0.2458826060        1.1450117897
 S          3.9449203657        1.6818674723        0.2968069800
 O          4.7162636382        1.4406376393       -0.8948538787
 O          4.4868247135        2.6411042320        1.2312006664
 C          2.2745278318        2.1361432489       -0.1357520510
 C          1.6116214150        3.0644348832        0.6415588243
 C          0.3036971405        3.3923472311        0.3252297693
 C         -0.3190110358        2.7801056354       -0.7509474657
 C          0.3547927977        1.8380204529       -1.5125231946
 C          1.6650318759        1.5097740581       -1.2047691309
 H          2.2174580734        0.7864021028       -1.7829295552
 H         -0.1352507350        1.3483823092       -2.3400628114
 H         -1.3355208599        3.0381254100       -1.0005023536
 H         -0.2261139316        4.1207827431        0.9176434130
 H          2.1363234601        3.5201701978        1.4659656562
 H          3.3792469362        0.4415891982        2.0414678733
 H          4.7781059370       -1.0659447793       -0.9097909514
 H          3.6438328853       -2.8968476907       -2.1418339450
 H          1.3888202362       -3.6190937692       -1.4863271974
 H         -0.2165807840       -2.5044986977        1.6551029946
 C         -0.6292459949       -3.9551297067        0.1427001835
 C         -0.0730325521       -5.1530762863        0.8507850914
 C         -1.4986663033       -4.7476297301        1.0705565412
 H         -2.2810182058       -5.3588977858        0.6463165887
 H         -1.7619669426       -4.2988827692        2.0173486142
 H          0.1255396783       -6.0455976416        0.2775768203
 H          0.6332393724       -4.9767837577        1.6480675255
 H         -0.8324683333       -4.0405880142       -0.9172130802
