  62
        -98.93490843
 C         -2.4293113044       -0.8678878061        0.8082915509
 C         -2.9574839589       -0.5183343353       -0.4602874727
 C         -3.9311309253        0.5878367874       -0.4657198962
 C         -4.2280744169        1.2193095045        0.6833646480
 C         -5.1746895914        2.3768831709        0.8110371644
 C         -4.4440743527        3.7180071624        0.6585617903
 C         -3.5327619947        3.7883808602       -0.5667176548
 H         -3.0961473699        4.7891410220       -0.5906954243
 H         -2.7094002603        3.0813958477       -0.4407427814
 C         -4.2393303307        3.5068037643       -1.9000138562
 H         -5.3176255183        3.6169309031       -1.7790591734
 H         -3.9176607738        4.2513170184       -2.6312454634
 C         -3.9348445974        2.1329958414       -2.5003432352
 H         -4.3001103586        2.1238482745       -3.5308245214
 H         -2.8532967202        1.9786165772       -2.5364579170
 C         -4.5683056843        0.9349665274       -1.7820994160
 H         -5.6397713289        1.1057495679       -1.6569784736
 H         -4.4319555948        0.0576749431       -2.4214586925
 H         -3.8338918053        3.8833232013        1.5494703897
 H         -5.1903237289        4.5127962266        0.6055219611
 H         -5.9518373120        2.2867549214        0.0544575269
 H         -5.6360021065        2.3348710439        1.7992787920
 O         -3.6526785640        0.8974455138        1.8703076441
 C         -2.7420304014       -0.1414569924        1.9609020131
 O         -2.2809820819       -0.3141465042        3.1076409094
 H          0.5910823019       -0.3292304873        1.0279887207
 C          0.6561790738       -0.9918945645        0.1730992085
 C         -0.3364631638       -1.9456018373       -0.0153063416
 C         -0.2456599363       -2.7932269894       -1.1109879237
 C          0.8069982754       -2.6734967380       -2.0009939799
 C          1.7913987920       -1.7208320654       -1.8133101764
 C          1.7160193788       -0.8742395146       -0.7149278968
 N          2.7201061265        0.0938087773       -0.5160726697
 S          4.3129819225       -0.4387578304       -0.7252049936
 O          4.6466009769       -0.3338981993       -2.1236966447
 O          4.4761166847       -1.7478192982       -0.1342197602
 C          5.2292093958        0.7751654399        0.2040673040
 C          5.5474052522        0.5083083668        1.5224235611
 C          6.2531849051        1.4558721409        2.2468122827
 C          6.6245800023        2.6486694726        1.6445684134
 C          6.2975762850        2.9022295945        0.3207397861
 C          5.5930841498        1.9585356499       -0.4098988525
 H          5.3279067002        2.1069861532       -1.4436490427
 H          6.5913094091        3.8294030266       -0.1443282494
 H          7.1757136837        3.3833123362        2.2100960074
 H          6.5119388927        1.2597451834        3.2749328331
 H          5.2488668971       -0.4372001130        1.9465124645
 H          2.6111472121        0.5787340298        0.3643088782
 H          2.6215671844       -1.6261495456       -2.4950695482
 H          0.8628354368       -3.3320361127       -2.8548728695
 H         -1.0140028186       -3.5297356333       -1.2791862280
 C         -1.4559603180       -2.0204390757        0.9931068432
 H         -1.0157213725       -1.8574496180        1.9904376882
 C         -2.1161452491       -3.3913830288        1.0374735274
 C         -3.4346018281       -3.5780672525        1.7259064024
 C         -3.3341883146       -3.7437120870        0.2407117159
 H         -3.4026635293       -4.7413754207       -0.1680264241
 H         -3.7615907014       -2.9840203192       -0.3937773500
 H         -3.5775688126       -4.4568059411        2.3364552683
 H         -3.9231239906       -2.6942537589        2.1105491681
 H         -1.3836822343       -4.1808176732        1.1780495532
 O         -2.6568119132       -1.0925526317       -1.5369811861
