  62
        -98.94251507
 C          1.2168550556        1.1393075412        0.2518294988
 C          1.9425220720        0.4127943854        1.2306817022
 C          2.7001263535       -0.7467507600        0.7481066689
 C          2.6248891077       -1.0970822649       -0.5479130337
 C          3.3468738195       -2.2455793848       -1.1993210624
 C          4.7913659116       -1.9203708407       -1.6053835628
 C          5.7865905189       -1.8110350659       -0.4494132919
 H          5.7133471706       -2.6997658095        0.1781876229
 H          6.7864871172       -1.8044817243       -0.8879755696
 C          5.6206505877       -0.5531313874        0.4147561146
 H          5.0237406413        0.1846517179       -0.1267420967
 H          6.5994642081       -0.1020435720        0.5931043407
 C          4.9811901648       -0.8019232136        1.7809948274
 H          4.8784406277        0.1592520433        2.2916175540
 H          5.6382235235       -1.4329965016        2.3836146484
 C          3.5950541493       -1.4567737075        1.7181941247
 H          3.6883451615       -2.5088649059        1.4505833679
 H          3.1371954182       -1.3854155386        2.7078259691
 H          4.7933335730       -0.9888892120       -2.1762628551
 H          5.1295160262       -2.7176728071       -2.2713453666
 H          2.7883279750       -2.4939808331       -2.1042944456
 H          3.3430035820       -3.1097387064       -0.5343126385
 O          1.8432323087       -0.4327564170       -1.4360117156
 C          1.1221855295        0.6986224905       -1.0699751055
 O          0.4576480690        1.1859891746       -2.0007659117
 O          1.9556521154        0.7197097416        2.4529503537
 C          0.4678154152        2.3766040172        0.7156199335
 C         -0.9732817873        2.2905422937        0.2875582537
 C         -1.5110728254        3.0477688009       -0.7442760959
 C         -2.8312414996        2.8769457095       -1.1237196380
 C         -3.6440949687        1.9633773879       -0.4768318676
 C         -3.1170393811        1.2085259552        0.5625273868
 C         -1.7914924882        1.3714440349        0.9335004180
 H         -1.3779007079        0.7708570030        1.7346960241
 N         -3.9451829248        0.2760556309        1.2306734395
 S         -4.3861974057       -1.0749185998        0.3462326989
 O         -5.1206471827       -0.6512167289       -0.8168791097
 O         -5.0863444933       -1.9353343929        1.2724240142
 C         -2.8430528194       -1.8296647793       -0.1327565033
 C         -2.3037701963       -2.8098917345        0.6767701378
 C         -1.0775481156       -3.3579700471        0.3387437865
 C         -0.4141540507       -2.9143480983       -0.7950701721
 C         -0.9661538839       -1.9257120179       -1.5946224080
 C         -2.1906183513       -1.3706785459       -1.2589869715
 H         -2.6418715059       -0.5946665407       -1.8559863422
 H         -0.4418389375       -1.5668721069       -2.4660745229
 H          0.5413115669       -3.3400925907       -1.0577227780
 H         -0.6414958604       -4.1256113717        0.9577547787
 H         -2.8589394162       -3.1320354839        1.5433261039
 H         -3.5602397009       -0.0286485902        2.1145355662
 H         -4.6692206867        1.8079488524       -0.7713360736
 H         -3.2331098698        3.4628683778       -1.9364131905
 H         -0.8852777130        3.7504577203       -1.2694149710
 H          0.4978243995        2.3119946480        1.8158901080
 C          1.1289777171        3.6958587947        0.3465558601
 C          2.6228548191        3.8199378536        0.3406542488
 C          1.8574237858        3.9204605946       -0.9429120016
 H          1.7723938558        4.8902244113       -1.4114993868
 H          1.9114470146        3.1032212646       -1.6441047296
 H          3.0698621628        4.7138747238        0.7487693674
 H          3.1955467221        2.9221027818        0.5241372980
 H          0.5772032788        4.5428746971        0.7432923497
