  62
        -98.94625609
 C          1.8106376052        1.0415859628       -0.2984397006
 C          3.1666302944        1.3031897691        0.0119256175
 C          4.1256257856        0.2723739166       -0.4004880477
 C          3.6901752904       -0.8239265136       -1.0481058978
 C          4.5487853859       -1.9510095347       -1.5549234083
 C          4.8811358821       -3.0099860272       -0.4946085624
 C          5.8893965001       -2.5724073619        0.5685623061
 H          6.1929280665       -3.4700421996        1.1109758170
 H          6.7785239930       -2.1708390665        0.0814508330
 C          5.3443763879       -1.5489950105        1.5745786392
 H          4.2527727883       -1.5425451137        1.5318555163
 H          5.6232306940       -1.8492318589        2.5871542541
 C          5.8558569338       -0.1232281048        1.3682867975
 H          6.9343161178       -0.0921896941        1.5384626062
 H          5.3799487183        0.5230746351        2.1103107926
 C          5.5641821024        0.4571841496       -0.0218347921
 H          5.7651192163        1.5309960450        0.0057616268
 H          6.2159781237       -0.0011327126       -0.7652902979
 H          3.9533270377       -3.3224039274       -0.0100304653
 H          5.2912318914       -3.8767709635       -1.0179668484
 H          3.9865394656       -2.4324374972       -2.3579181641
 H          5.4728284345       -1.5488576867       -1.9712379602
 O          2.3787763951       -1.0296660836       -1.3425529388
 C          1.4065508045       -0.1151669135       -0.9633350695
 O          0.2462286419       -0.4430893730       -1.2740461999
 H         -2.0055275958        2.0156782316       -0.1686931196
 C         -1.6455076090        1.4869413485        0.6972363783
 C         -0.2895635975        1.4090258816        0.9710972711
 C          0.1220598927        0.7129640428        2.1060169153
 C         -0.7976678884        0.1001419445        2.9335873061
 C         -2.1502063136        0.1609867245        2.6434201942
 C         -2.5725504231        0.8581995200        1.5192591794
 N         -3.9421987554        0.9629043837        1.2107068821
 S         -4.5030628025        0.4575114322       -0.2841842795
 O         -3.8594779889        1.2064035181       -1.3310052013
 O         -5.9414259137        0.5887161450       -0.1962455895
 C         -4.0735061550       -1.2720341298       -0.3681165251
 C         -2.7733891273       -1.6394500224       -0.6514254217
 C         -2.4497957234       -2.9881054168       -0.6471254497
 C         -3.4184887372       -3.9377447622       -0.3630857936
 C         -4.7198771410       -3.5499655067       -0.0803960741
 C         -5.0508450106       -2.2051934490       -0.0773400570
 H         -6.0492924827       -1.8570777688        0.1331184599
 H         -5.4734063896       -4.2893969170        0.1383979865
 H         -3.1570547212       -4.9843502850       -0.3633870206
 H         -1.4340102524       -3.2761771890       -0.8676051736
 H         -2.0257280255       -0.8944803566       -0.8744555980
 H         -4.5488011428        0.5959322239        1.9311483865
 H         -2.8716330755       -0.3228522518        3.2843962627
 H         -0.4611793996       -0.4355674870        3.8083697458
 H          1.1794520708        0.6595776343        2.3278078555
 C          0.7556415183        2.0576753818        0.0987053357
 H          1.2868356574        2.8108015579        0.6999860258
 C          0.1869372725        2.7350054184       -1.1301851928
 C         -0.3623192441        4.1260782170       -1.0365136669
 C          0.9361386138        3.8786499394       -1.7424128311
 H          0.9638600258        3.9600922987       -2.8187309603
 H          1.8503316550        4.1879956180       -1.2569486655
 H         -0.3312885402        4.6116832894       -0.0727798797
 H         -1.2313497076        4.3750335894       -1.6271261697
 H         -0.3021140853        2.0411820225       -1.8060085326
 O          3.5545782506        2.3448571423        0.6054756424
