  62
        -98.93978479
 C         -1.7341697177       -1.3143848031        0.4907802601
 C         -1.5436104176       -0.2417614285       -0.4165116278
 C         -2.7631206196        0.2817027583       -1.0562332637
 C         -3.9565810846       -0.2610852450       -0.7590844953
 C         -5.2756395059        0.2123214517       -1.2955466610
 C         -5.9032133899        1.2654155102       -0.3716866386
 C         -4.9446513176        2.3876746073        0.0273405918
 H         -5.5044933309        3.0870001392        0.6521750771
 H         -4.1455409000        1.9736991026        0.6469994407
 C         -4.3246344036        3.1440367390       -1.1558998571
 H         -4.9111294719        2.9659783246       -2.0580775401
 H         -4.3671378105        4.2152527865       -0.9477939204
 C         -2.8585173998        2.8031601903       -1.4303041865
 H         -2.2787914496        2.8940917722       -0.5074903435
 H         -2.4635162200        3.5414580087       -2.1337014609
 C         -2.5957845002        1.4154668848       -2.0283965342
 H         -3.2267687494        1.2678771314       -2.9074500113
 H         -1.5492326317        1.3891058822       -2.3463850200
 H         -6.7741428524        1.6905634255       -0.8737405962
 H         -6.2449276576        0.7680524183        0.5389875491
 H         -5.1298984175        0.6274440384       -2.2908275730
 H         -5.9474946482       -0.6449892840       -1.3632835121
 O         -4.1013861636       -1.2858412277        0.1188458718
 C         -3.0062026497       -1.8185174454        0.7782774745
 O         -3.2913183915       -2.7252272550        1.5859154196
 H          1.9096058705       -0.9243387338        0.6056190501
 C          1.4840280936       -0.4636246367        1.4818018472
 C          0.2306165539       -0.8509539966        1.9313000916
 C         -0.3065571275       -0.2176467117        3.0489236237
 C          0.3979788349        0.7679458347        3.7121735195
 C          1.6512725012        1.1462061083        3.2646502914
 C          2.1902593382        0.5348004170        2.1401097828
 N          3.4698547401        0.8974177141        1.6688179828
 S          3.5569094676        1.6374199061        0.1563500710
 O          4.8250661723        2.3405201083        0.1840035069
 O          2.3948916675        2.4562818027       -0.0963457473
 C          3.6826159163        0.3026645099       -1.0107791812
 C          2.6306649044        0.0213538142       -1.8581765134
 C          2.7845876462       -0.9928438292       -2.7916325908
 C          3.9717187384       -1.7061301497       -2.8530968000
 C          5.0141523137       -1.4159438497       -1.9850896794
 C          4.8728154114       -0.3975712892       -1.0571025749
 H          5.6622362685       -0.1238958290       -0.3770123099
 H          5.9340631152       -1.9761453353       -2.0334032878
 H          4.0829991167       -2.4941126580       -3.5816082538
 H          1.9720508615       -1.2227260285       -3.4626903738
 H          1.7105887022        0.5745938082       -1.7560510845
 H          3.9850226083        1.4670870670        2.3271743356
 H          2.2078806418        1.9171853937        3.7772859510
 H         -0.0298679839        1.2464473197        4.5804856551
 H         -1.2892840227       -0.5125926523        3.3924579859
 C         -0.5812372293       -1.9334144000        1.2645400273
 H         -1.0665282265       -2.5170993208        2.0639175107
 C          0.2660459455       -2.9182046967        0.4737229071
 C         -0.3916986518       -3.9061791049       -0.4427742572
 C          0.4794163792       -2.8252694426       -1.0048184434
 H          1.4494078931       -3.0983577753       -1.3934868118
 H          0.0127071754       -2.0090703096       -1.5315414360
 H         -0.0281274863       -4.9224669286       -0.4530023763
 H         -1.4611190263       -3.8227294414       -0.5736323253
 H          1.0998867350       -3.2886791039        1.0622354210
 O         -0.4251830572        0.2577842499       -0.6975546326
