  62
        -98.93821629
 C         -2.4928222037       -0.6603223873       -0.0203739976
 C         -2.9456710283        0.4403695778        0.7522860421
 C         -4.1061994287        1.1696287015        0.2322991322
 C         -4.6577467537        0.7930992290       -0.9353799919
 C         -5.8283735318        1.4491546254       -1.6160250549
 C         -7.1952936551        0.9772672079       -1.1017587450
 C         -7.5764326179        1.4826295608        0.2902814700
 H         -7.4636098692        2.5666089827        0.3255519731
 H         -8.6359075822        1.2605355533        0.4327376204
 C         -6.7802177532        0.8428053563        1.4362211919
 H         -6.2968050561       -0.0694775921        1.0789798616
 H         -7.4642988433        0.5496570293        2.2358726943
 C         -5.7204679573        1.7524534560        2.0580645062
 H         -5.1943351850        1.1866726528        2.8312868719
 H         -6.2056632074        2.6057972384        2.5370907629
 C         -4.6766963268        2.2784890577        1.0640236339
 H         -5.1174534167        3.0442886841        0.4260501607
 H         -3.8561205150        2.7240218697        1.6315988046
 H         -7.9487584269        1.3279717487       -1.8108392220
 H         -7.2138958137       -0.1150146006       -1.1106938102
 H         -5.7528542969        2.5318382170       -1.5112406208
 H         -5.7533274766        1.1955580999       -2.6756152603
 O         -4.1812612579       -0.2503454333       -1.6613615946
 C         -3.1027838605       -1.0139523502       -1.2251729460
 O         -2.8102635784       -1.9438421017       -1.9975289343
 O         -2.4029496604        0.7918202641        1.8347164793
 C         -1.3129188904       -1.4358192383        0.5368933539
 C         -0.0056816973       -0.9132080473       -0.0020236208
 C          0.2096177972       -0.7638906932       -1.3684114545
 C          1.4258214290       -0.3026726481       -1.8386668192
 C          2.4468094513        0.0224073854       -0.9624693376
 C          2.2417435416       -0.1186583399        0.4030255376
 C          1.0200422521       -0.5849525202        0.8723569492
 H          0.8603544027       -0.6828437811        1.9380020331
 N          3.2702687750        0.2234374576        1.2964410737
 S          4.7970642179       -0.4273274963        1.0381506243
 O          4.7151401376       -1.7040133991        0.3678915801
 O          5.4331290007       -0.4209512030        2.3371113349
 C          5.6035455211        0.7651403043       -0.0087835152
 C          6.1467756735        0.3655038224       -1.2140368043
 C          6.7814419360        1.3078862706       -2.0083304652
 C          6.8613582548        2.6257305554       -1.5850708222
 C          6.3127743923        3.0102454155       -0.3705063748
 C          5.6784481762        2.0729343684        0.4289806291
 H          5.2439359817        2.3306815162        1.3803972050
 H          6.3773192499        4.0359996855       -0.0449042066
 H          7.3547932964        3.3574289746       -2.2051616919
 H          7.2093166183        1.0105583181       -2.9522666946
 H          6.0560301836       -0.6690294388       -1.5048596075
 H          3.0079224252        0.1522025282        2.2690578139
 H          3.3949359713        0.3826010264       -1.3268158067
 H          1.5805769297       -0.1941036487       -2.9015034047
 H         -0.5831671654       -1.0205847148       -2.0547824917
 H         -1.3287746447       -1.2204512958        1.6175934916
 C         -1.4539260976       -2.9439318134        0.3808357035
 C         -0.6256933777       -3.7696969853       -0.5519601540
 C         -0.3955132684       -3.8578770622        0.9250824238
 H         -0.6997591920       -4.7518240202        1.4481591731
 H          0.5040862198       -3.4033325198        1.3140212504
 H         -1.1120035937       -4.5908853284       -1.0556889801
 H          0.1196995272       -3.2738668594       -1.1531920867
 H         -2.4826388651       -3.2647184526        0.5122085354
