  62
        -98.93067537
 C          2.3620313300        0.7402955001        0.3640325405
 C          3.6652875300        0.7743999197        0.9195993507
 C          4.7855372600        0.4447912600        0.0220266006
 C          4.5261092501        0.0836282806       -1.2481869196
 C          5.4524429202       -0.2678342889       -2.3934894696
 C          6.9237569001       -0.5851961593       -2.1391881396
 C          7.1751598599       -1.8745329797       -1.3582704602
 H          6.8974788598       -2.7227974193       -1.9890355807
 H          8.2459122898       -1.9473925799       -1.1556084501
 C          6.4110048897       -2.0096214802       -0.0434624504
 H          6.6843088995       -2.9688177705        0.4047468692
 H          5.3380268197       -2.0445001700       -0.2440965005
 C          6.6880457797       -0.9190569407        0.9896043802
 H          7.7623451697       -0.8478579610        1.1703198603
 H          6.2112617096       -1.2237835911        1.9252141600
 C          6.1557912600        0.4804581595        0.6351528308
 H          6.0619935199        1.0499912291        1.5643951911
 H          6.8495491001        1.0168701197       -0.0079084189
 H          7.4124889702        0.2547185104       -1.6542788092
 H          7.3908828402       -0.6988385588       -3.1212663096
 H          5.3965357204        0.5760946814       -3.0900998692
 H          4.9854477301       -1.1172571486       -2.9020466501
 O          3.2509019601        0.0263072710       -1.7290319297
 C          2.1428199901        0.3419749708       -0.9542962697
 O          1.0621663202        0.2256324812       -1.5597774999
 O          3.8888391299        1.0768707991        2.1223844608
 C          1.2013826600        1.0841709599        1.2804753005
 C          0.1319584898        0.0259055500        1.1894296599
 C          0.3759535196       -1.2268359903        1.7446565293
 C         -0.5746226305       -2.2275602901        1.6772059988
 C         -1.7877607004       -2.0038534096        1.0500992487
 C         -2.0386831302       -0.7601630893        0.4872621093
 C         -1.0865538001        0.2481363405        0.5686530799
 H         -1.2859754899        1.2054099107        0.1118871003
 N         -3.2605153201       -0.5289340089       -0.1800092107
 S         -4.6712158202       -0.8287883191        0.6993319290
 O         -4.6507575303       -0.0867213297        1.9423710294
 O         -4.8454158504       -2.2535470891        0.8222940683
 C         -5.9019772800       -0.1578950584       -0.4006773608
 C         -6.3535309300       -0.9392713578       -1.4468855912
 C         -7.2898538698       -0.4108954973       -2.3211856011
 C         -7.7550058397        0.8827334427       -2.1368289205
 C         -7.2929199797        1.6545533221       -1.0815122601
 C         -6.3560029099        1.1322873116       -0.2037705402
 H         -5.9772178099        1.6927724411        0.6360051301
 H         -7.6585332696        2.6587914921       -0.9392156197
 H         -8.4843227996        1.2913261431       -2.8183412804
 H         -7.6534236098       -1.0081929268       -3.1416877414
 H         -5.9698699801       -1.9411142078       -1.5462173717
 H         -3.2937475299        0.4065099713       -0.5643285703
 H         -2.5408044505       -2.7730678395        0.9959089883
 H         -0.3707551207       -3.1935624803        2.1148771583
 H          1.3263027495       -1.4074510306        2.2290589194
 H          1.6343569698        1.0376451793        2.2935083106
 C          0.6617600802        2.4964553400        1.1104771812
 C          1.5803928404        3.6276405201        0.7603391218
 C          0.5455963104        3.1718191707       -0.2220502085
 H         -0.3079613895        3.8111154509       -0.3964779183
 H          0.8657099304        2.6241168410       -1.0943379187
 H          1.4408056304        4.5767771798        1.2554026823
 H          2.6142313003        3.3847573900        0.5625554918
 H         -0.1178869799        2.7149387998        1.8348523012
