  62
        -98.93893280
 C         -2.1806848188        1.0175528074       -0.4730765053
 C         -2.3377730871        0.2157603077        0.6811600336
 C         -3.1558209797       -1.0014344040        0.5233813333
 C         -3.6529061711       -1.3045418431       -0.6882154880
 C         -4.5477325221       -2.4575350669       -1.0503167603
 C         -6.0262380288       -2.0378985113       -0.9853768189
 C         -6.6767671862       -2.1810889494        0.3899253308
 H         -7.6703144722       -1.7314890611        0.3273487865
 H         -6.8104220903       -3.2413432138        0.6144653747
 C         -5.9143103579       -1.5291281483        1.5463419578
 H         -5.5482082110       -0.5477057530        1.2396191897
 H         -6.6194011502       -1.3700481241        2.3643532750
 C         -4.7462100511       -2.3852907660        2.0583779939
 H         -4.8314377031       -3.3896260560        1.6437315792
 H         -4.8230668553       -2.4911439813        3.1424168566
 C         -3.3457229414       -1.8247007410        1.7680057304
 H         -3.0406028639       -1.1633382940        2.5852369341
 H         -2.6243817890       -2.6492598203        1.7533756280
 H         -6.0938798074       -0.9992630245       -1.3190077596
 H         -6.5937882100       -2.6458379182       -1.6927489764
 H         -4.3071154409       -2.7266156722       -2.0810600521
 H         -4.3519420113       -3.3131691974       -0.4108813600
 O         -3.4313127910       -0.5299744186       -1.7867239146
 C         -2.7011804252        0.6418312011       -1.7101793174
 O         -2.5775999701        1.2454550912       -2.7960322849
 H          0.1945643901        0.4848815413       -1.5033172466
 C          0.7132378363        1.0042622905       -0.7056801554
 C          0.0443948016        2.0019560140       -0.0065972507
 C          0.7190461214        2.6614306605        1.0115683480
 C          2.0224321222        2.3154705287        1.3255010762
 C          2.6820849445        1.3193151822        0.6299752608
 C          2.0182497679        0.6567402711       -0.3946531190
 N          2.6846740836       -0.3452219684       -1.1232650701
 S          3.4458606604       -1.5732838782       -0.2654733552
 O          3.4895036364       -2.6961949620       -1.1774603296
 O          2.8107949647       -1.8057093355        1.0109559016
 C          5.0999229108       -0.9582143107       -0.0267446580
 C          5.6221999660       -0.8621314766        1.2481878212
 C          6.9144327580       -0.3862322459        1.4085534984
 C          7.6572962027       -0.0181440625        0.2972850694
 C          7.1189029614       -0.1234514193       -0.9766801566
 C          5.8284011142       -0.5995146988       -1.1440564152
 H          5.3745272113       -0.7012559266       -2.1156540452
 H          7.6995648098        0.1633848137       -1.8385278126
 H          8.6618613822        0.3531099119        0.4247827423
 H          7.3345197139       -0.3041820221        2.3981168247
 H          5.0047461048       -1.1551952581        2.0824781250
 H          2.1289302394       -0.7336832721       -1.8718445416
 H          3.6951529697        1.0454153165        0.8748371398
 H          2.5324383476        2.8307271245        2.1250445740
 H          0.2218057668        3.4386945788        1.5677331342
 C         -1.3805808301        2.3064204630       -0.4025996723
 H         -1.3673279676        2.7093803368       -1.4260882621
 C         -2.0675751360        3.3040349932        0.5056792044
 C         -1.8869139057        4.7744905015        0.2823870082
 C         -3.1960002637        4.1222988175       -0.0435220709
 H         -4.0461033414        4.3206421972        0.5918238631
 H         -3.4533506078        3.9773701158       -1.0830090001
 H         -1.8409696116        5.4250866025        1.1425314226
 H         -1.2566970265        5.0814325576       -0.5384335375
 H         -2.1598853713        2.9451185918        1.5240765949
 O         -1.8303654350        0.5032877284        1.7966788953
