  62
        -98.93401640
 C          1.9784995622        0.4833476695        0.9628919874
 C          2.8311404026        1.0293155136       -0.0246512464
 C          4.2351428656        0.5591260587       -0.0254049901
 C          4.6200882769       -0.3575898827        0.8803923207
 C          5.9686082749       -1.0080977265        1.0409478959
 C          6.2395040607       -2.0837120756       -0.0228176251
 C          5.8616520046       -1.6868328958       -1.4473355643
 H          6.0063058124       -2.5629660693       -2.0850850063
 H          4.7998571864       -1.4359866942       -1.4792714525
 C          6.6744741432       -0.5379989316       -2.0396415293
 H          6.3692260813       -0.4302999358       -3.0836413676
 H          7.7333226821       -0.8061269863       -2.0302584180
 C          6.5095052511        0.8210008904       -1.3554935320
 H          6.9314018721        1.5753222607       -2.0261693147
 H          7.0857089378        0.8711574201       -0.4354714300
 C          5.0634231933        1.2301550476       -1.0950707998
 H          5.0424370993        2.2997650503       -0.8537153835
 H          4.4918854743        1.1354676026       -2.0252832104
 H          7.2976958707       -2.3480523188        0.0159588380
 H          5.6600501771       -2.9723052209        0.2399463288
 H          6.7507271020       -0.2547239343        1.0372651858
 H          5.9706132044       -1.4841064474        2.0241576072
 O          3.7562388310       -0.8701879272        1.8043424741
 C          2.4386512397       -0.4713417398        1.8726154438
 O          1.7794479369       -1.0214931965        2.7792998971
 O          2.4654298719        1.8714335571       -0.8838684625
 C          0.5166023376        0.8703523097        1.1133695812
 C         -0.3553254574        0.0086309776        0.2375561078
 C         -0.1041318869       -0.1214101391       -1.1248384353
 C         -0.9187647372       -0.9097522288       -1.9169504517
 C         -2.0025101331       -1.5759923645       -1.3713664535
 C         -2.2651433106       -1.4473704486       -0.0145333837
 C         -1.4427867828       -0.6595805936        0.7804916757
 H         -1.6426930067       -0.5772985021        1.8404539411
 N         -3.3925556936       -2.0945906472        0.5329294343
 S         -4.8688786288       -1.6299862186       -0.1189344675
 O         -5.8589716362       -1.9864263939        0.8713683773
 O         -5.0226109795       -2.2288353386       -1.4197560770
 C         -4.7283932097        0.1414768203       -0.2655764890
 C         -4.9205517410        0.9078519904        0.8670346689
 C         -4.7128839400        2.2756026922        0.7943444864
 C         -4.3043600458        2.8488560906       -0.4003235907
 C         -4.1187304391        2.0660727893       -1.5288366117
 C         -4.3319052761        0.6982906234       -1.4647599862
 H         -4.2015659733        0.0568505246       -2.3205115008
 H         -3.8016635101        2.5152269680       -2.4561956626
 H         -4.1260718568        3.9109976406       -0.4504657316
 H         -4.8601721999        2.8884249295        1.6691888384
 H         -5.2389663004        0.4243804750        1.7769935222
 H         -3.4312988614       -2.0416655039        1.5411506646
 H         -2.6534828931       -2.1876060271       -1.9751597944
 H         -0.7096689623       -1.0053885018       -2.9717115265
 H          0.7319277150        0.4094697759       -1.5537457646
 H          0.2694323524        0.6328395990        2.1601546332
 C          0.2634550486        2.3598395825        0.9144394912
 C         -0.5744015476        2.9187126558       -0.1927690759
 C         -1.0949570862        2.9235969096        1.2106494914
 H         -1.1619678980        3.8616101777        1.7400771876
 H         -1.8797672781        2.2215220344        1.4505388549
 H         -0.2553047209        3.8501488933       -0.6341452728
 H         -1.0197244206        2.2327763848       -0.8958442414
 H          1.1147876562        2.9586012145        1.2198004709
