  62
        -98.93763145
 C         -2.2950643784       -0.3776059762       -0.2046969340
 C         -1.5552076052       -1.0623391216       -1.2009388866
 C         -0.9372028472       -2.3489494994       -0.8371249531
 C         -1.1092962394       -2.8098541405        0.4152982359
 C         -0.5520117443       -4.0649417121        1.0331043343
 C          0.9332928826       -3.9268796072        1.4008967146
 C          1.8050392161       -3.2919527589        0.3208504703
 H          2.8096141256       -3.1739155857        0.7376171869
 H          1.4310581852       -2.2862211495        0.1200369203
 C          1.9233614263       -4.0828373524       -0.9800893373
 H          2.3259697167       -5.0735032879       -0.7572566732
 H          2.6508109764       -3.5612538238       -1.6070137020
 C          0.6344428250       -4.2516734029       -1.7883115760
 H          0.0032985227       -5.0288946745       -1.3657344366
 H          0.9210025089       -4.5931547407       -2.7871638132
 C         -0.1681492154       -2.9693149718       -1.9790312412
 H         -0.9050220642       -3.1322251756       -2.7748173696
 H          0.4974759809       -2.1851057372       -2.3573098516
 H          1.3199218073       -4.9151683338        1.6579988163
 H          1.0038160676       -3.2894909794        2.2865414575
 H         -0.7105669245       -4.9127674509        0.3728645410
 H         -1.1204015401       -4.2427044495        1.9490816910
 O         -1.8351303972       -2.1258005600        1.3410769790
 C         -2.3838718991       -0.8810217888        1.0923241982
 O         -2.9226815778       -0.3665702351        2.0951605528
 O         -1.4043121545       -0.6027212153       -2.3660302407
 C         -2.8059282007        1.0004336602       -0.6018297737
 C         -1.6363333975        1.9494917335       -0.4816669009
 C         -1.2049454452        2.7287494259       -1.5473183649
 C         -0.0331052305        3.4612135372       -1.4584127911
 C          0.7519312638        3.3918808677       -0.3209965696
 C          0.3165536134        2.6291864632        0.7539949363
 C         -0.8884513070        1.9521497670        0.6878877870
 H         -1.2083039606        1.3522297611        1.5285864597
 N          1.1989039366        2.4361986531        1.8615542050
 S          1.9270477641        0.9122958332        1.7098893804
 O          0.9443102195       -0.1488157343        1.6821868930
 O          2.8995586807        0.8294248703        2.7787116254
 C          2.7408353086        1.0357869315        0.1349264538
 C          2.0840513620        0.5864804318       -0.9937031318
 C          2.7031810791        0.7205109115       -2.2258409587
 C          3.9605328589        1.2995600887       -2.3071201100
 C          4.6074690743        1.7445248191       -1.1638483926
 C          3.9928035066        1.6150635818        0.0713461293
 H          4.4552932708        1.9424479930        0.9878607430
 H          5.5853025150        2.1933050622       -1.2319720721
 H          4.4371195653        1.4035512498       -3.2690577877
 H          2.1915065675        0.3780716303       -3.1113929194
 H          1.1018085695        0.1479928351       -0.8958623907
 H          0.7151206265        2.4542413228        2.7507138438
 H          1.6988297010        3.9025509652       -0.2586666752
 H          0.2917854682        4.0577023546       -2.2964550066
 H         -1.7753315592        2.7280178676       -2.4639161672
 H         -3.0677240181        0.9298594175       -1.6667508242
 C         -4.0143892108        1.4977562337        0.1591734012
 C         -4.8753680029        2.5555042893       -0.4626768297
 C         -5.3865868640        1.1529027344       -0.3331269624
 H         -6.1538445273        0.9431268882        0.3965020834
 H         -5.4599244586        0.5513847073       -1.2273163751
 H         -5.2946649577        3.3164763724        0.1771073143
 H         -4.6067236158        2.9064905770       -1.4472965474
 H         -3.8682749951        1.5319066720        1.2306186975
