  62
        -98.93455994
 C         -1.4300972832       -1.5273844340        0.6546333208
 C         -1.5517649276       -0.1778633584        1.0691915217
 C         -2.8378789834        0.4957477062        0.8125419601
 C         -3.8248077235       -0.2067675744        0.2270086480
 C         -5.1860402904        0.2876106941       -0.1798971846
 C         -5.1433066583        1.1152191251       -1.4781843948
 C         -3.9476205693        2.0570880356       -1.6096245526
 H         -3.0254239352        1.4857369741       -1.4864606710
 H         -3.9487118326        2.4532043161       -2.6286022705
 C         -3.9430934657        3.2442733011       -0.6495447603
 H         -3.0475630427        3.8327389349       -0.8630999090
 H         -4.8117931709        3.8733532135       -0.8582731294
 C         -3.9515454035        2.8998355325        0.8396695734
 H         -3.7803571897        3.8296149390        1.3904660455
 H         -4.9309039185        2.5390576028        1.1424155264
 C         -2.8621071265        1.9282936437        1.2863021318
 H         -1.8829402154        2.3368236864        1.0155496643
 H         -2.8680858866        1.8835999617        2.3824653812
 H         -5.1047531940        0.4168404706       -2.3175644534
 H         -6.0702191467        1.6854949263       -1.5571456798
 H         -5.8073889663       -0.5942770688       -0.3496441252
 H         -5.6306139622        0.8539960887        0.6333260532
 O         -3.6724993767       -1.5094252524       -0.1384678131
 C         -2.4827462820       -2.2005826357        0.0359256426
 O         -2.5156436335       -3.3696971097       -0.3899986623
 O         -0.6133678639        0.4476790269        1.6313190065
 C         -0.0756545481       -2.1754473354        0.8800687950
 C          0.8075522134       -1.8758228396       -0.3034890474
 C          0.4238003639       -2.2391351217       -1.5920053710
 C          1.2289022118       -1.9334043551       -2.6729127555
 C          2.4178313072       -1.2465266612       -2.4944591152
 C          2.8037119071       -0.8706540586       -1.2134413935
 C          2.0003671481       -1.1920065564       -0.1266839245
 H          2.3125358765       -0.8955060377        0.8630116372
 N          4.0030801020       -0.1786557866       -1.0039389889
 S          4.1441200094        0.9450857080        0.2212307460
 O          5.2737904476        1.7580321459       -0.1791076158
 O          4.2779452403        0.2791739928        1.4927283447
 C          2.6633351772        1.9396776552        0.1881955607
 C          2.0525680825        2.2746164247        1.3780655191
 C          0.9452167961        3.1062872868        1.3549148132
 C          0.4672686823        3.5819816304        0.1449669731
 C          1.0862047238        3.2298523410       -1.0445195981
 C          2.1989470406        2.4057559468       -1.0258823301
 H          2.7038456625        2.1271929386       -1.9366423745
 H          0.7054677661        3.5958075883       -1.9848129533
 H         -0.3943107309        4.2318822695        0.1281129489
 H          0.4561625825        3.3680975198        2.2790647835
 H          2.4450310378        1.8730189101        2.2982713740
 H          4.4949737879        0.1011888093       -1.8392984416
 H          3.0433114367       -1.0038375659       -3.3398661479
 H          0.9249735358       -2.2253266754       -3.6668296248
 H         -0.5112567748       -2.7615399142       -1.7304593674
 H          0.3507104623       -1.6456324488        1.7470408754
 C         -0.1434172602       -3.6519470746        1.2389981308
 C          0.4313696453       -4.7417616992        0.3890575726
 C          1.1060909265       -4.3620869206        1.6706128702
 H          1.0558014036       -5.0409774276        2.5084468503
 H          2.0337283916       -3.8121347624        1.6034709724
 H         -0.1104519932       -5.6741061168        0.3426293799
 H          0.9137656251       -4.4729335563       -0.5372290161
 H         -1.0515876270       -3.8989397380        1.7784384778
