  62
        -98.94044732
 C          2.0404450721        0.4586149662        0.0459845013
 C          2.6948301645       -0.6980197428        0.5433022825
 C          4.0487896068       -0.9485437979        0.0406610466
 C          4.5838885547       -0.1145277147       -0.8690882356
 C          5.9423688607       -0.2464879687       -1.5023178765
 C          7.0842556389        0.3367853187       -0.6588498521
 C          7.4581373408       -0.4763523575        0.5811109954
 H          7.6330745596       -1.5138678041        0.2945971332
 H          8.4040961139       -0.0773278442        0.9526793218
 C          6.4211475535       -0.4203184480        1.7116168421
 H          5.7477450788        0.4238636143        1.5465124454
 H          6.9284358630       -0.2435727520        2.6627465978
 C          5.5884406236       -1.6923422904        1.8721253013
 H          4.8645107731       -1.5292857294        2.6746324742
 H          6.2369422712       -2.5202542671        2.1673032132
 C          4.8140703513       -2.1033272875        0.6128287742
 H          5.4965808950       -2.5137244755       -0.1312808449
 H          4.0925157630       -2.8759529282        0.8897712022
 H          6.8149521247        1.3527430340       -0.3609549970
 H          7.9642366080        0.4018546988       -1.3029131428
 H          5.8989489120        0.2993353480       -2.4473094871
 H          6.1459721855       -1.2961074750       -1.7165989658
 O          3.9160924430        0.9669314434       -1.3453086718
 C          2.6387603879        1.2929723011       -0.8994562308
 O          2.1784109103        2.3227948379       -1.4233893380
 O          2.1669754011       -1.4824138652        1.3773929778
 C          0.6485507812        0.7299756511        0.5876733438
 C         -0.3977382222        0.0846265854       -0.2837636795
 C         -0.4482524059        0.3301363556       -1.6525103984
 C         -1.4231512405       -0.2603720803       -2.4359713757
 C         -2.3667007039       -1.1028108936       -1.8735024792
 C         -2.3247524613       -1.3535860362       -0.5090608179
 C         -1.3448774659       -0.7598892860        0.2761715253
 H         -1.3084919389       -0.9711568966        1.3363462186
 N         -3.3038907470       -2.1883354068        0.0691387353
 S         -4.8865856605       -1.6481935630       -0.0763931112
 O         -5.6316519117       -2.3546032567        0.9401935624
 O         -5.3262480938       -1.8305064299       -1.4355487561
 C         -4.7794163937        0.0887278139        0.3121705963
 C         -4.7580956564        0.4630485029        1.6412800417
 C         -4.5737291639        1.7989128704        1.9586954451
 C         -4.3999205067        2.7308203793        0.9466219838
 C         -4.4247341494        2.3389221853       -0.3825626275
 C         -4.6159572861        1.0053318341       -0.7069899645
 H         -4.6449502052        0.6622255599       -1.7279254694
 H         -4.2887207838        3.0662968130       -1.1665210927
 H         -4.2401745167        3.7676975403        1.1952240390
 H         -4.5564081129        2.1080121971        2.9915451848
 H         -4.8979237539       -0.2921305299        2.3983782910
 H         -3.1097882439       -2.4203127687        1.0332315357
 H         -3.1386089369       -1.5641939160       -2.4681785836
 H         -1.4493642906       -0.0623874856       -3.4969159055
 H          0.2820684819        0.9929656970       -2.0915114320
 H          0.6278838114        0.2135435614        1.5605296844
 C          0.3701128225        2.2041299886        0.8503347864
 C         -0.6649500129        2.9978283342        0.1160209587
 C         -0.8995070391        2.6058106121        1.5416127377
 H         -0.8548760144        3.3660180543        2.3061991924
 H         -1.6274074551        1.8301708860        1.7283085662
 H         -0.4315565120        4.0264067225       -0.1116286285
 H         -1.2442366118        2.5035246157       -0.6475841521
 H          1.2693392504        2.7403983071        1.1346435555
