  62
        -98.93714395
 C         -1.4851953115       -1.7229299040       -0.4428105318
 C         -1.3842426994       -0.4049598106       -0.9416463643
 C         -2.4048493192        0.5613881605       -0.4880293116
 C         -3.3523438438        0.1605980350        0.3762563460
 C         -4.4574132526        0.9688399208        1.0061824376
 C         -4.0291750367        2.3142144190        1.6144118756
 C         -4.5710820706        3.5220308036        0.8493806271
 H         -5.6002589408        3.3121993253        0.5504661011
 H         -4.5949151200        4.3810513832        1.5236198324
 C         -3.7563269182        3.9201490971       -0.3793707434
 H         -4.3099685105        4.7030261821       -0.9032513457
 H         -2.8071974062        4.3529916163       -0.0550791719
 C         -3.4566417676        2.7880828570       -1.3648313517
 H         -4.3210137487        2.1349262770       -1.4745469823
 H         -3.2741448285        3.2417204637       -2.3414256362
 C         -2.2140533620        1.9620152758       -1.0048519783
 H         -1.5914541137        1.8424511464       -1.8974376980
 H         -1.5934320625        2.5024643375       -0.2812207960
 H         -2.9414078340        2.3602708454        1.6752113131
 H         -4.4101069985        2.3590042520        2.6361980085
 H         -5.2481801476        1.1271332844        0.2696427516
 H         -4.8752923044        0.3245168471        1.7828898908
 O         -3.4353546171       -1.1306866011        0.8087320969
 C         -2.5100340279       -2.0839140708        0.4356186387
 O         -2.7069634116       -3.2104272346        0.9364327729
 H          1.1339545195       -0.6972481916       -0.2104446304
 C          1.3610703437       -1.5338091907        0.4274308656
 C          0.6524055364       -2.7192374472        0.2849303600
 C          0.9640176854       -3.7903540441        1.1129320474
 C          1.9492741380       -3.6681189459        2.0768098583
 C          2.6173852070       -2.4702749470        2.2490071503
 C          2.3142383926       -1.3911957854        1.4236880905
 N          2.9759424224       -0.1675970233        1.5876662324
 S          2.2156808659        1.3187565430        1.3940151753
 O          2.7766204337        2.1441150497        2.4467254277
 O          0.7786716794        1.1947847284        1.3853698008
 C          2.8547950131        1.9027567164       -0.1626078198
 C          2.1131890005        1.8061321149       -1.3214777641
 C          2.6706472668        2.2577687988       -2.5091059897
 C          3.9485716927        2.7930617280       -2.5193335280
 C          4.6805035888        2.8844445886       -1.3445283432
 C          4.1306691809        2.4359990535       -0.1557557874
 H          4.6572897837        2.5016547331        0.7818486936
 H          5.6741781094        3.3026811003       -1.3527341730
 H          4.3749753094        3.1416364653       -3.4468617837
 H          2.0969799102        2.1825373975       -3.4191865979
 H          1.1220468577        1.3791816265       -1.2969516664
 H          3.6123019672       -0.1411518551        2.3708602156
 H          3.3642626763       -2.3641099048        3.0214394201
 H          2.1835791902       -4.5065206159        2.7152859704
 H          0.4127900655       -4.7139200006        1.0138495738
 C         -0.4682736678       -2.8196277456       -0.7244679803
 H         -0.9945839074       -3.7670799753       -0.5430088976
 C          0.0687837456       -2.8362279406       -2.1409319538
 C          0.6287598130       -4.1143957418       -2.6862004188
 C         -0.6777599043       -3.5888371328       -3.1990396826
 H         -0.7161180959       -3.1739177577       -4.1948050082
 H         -1.5839205570       -4.0982927467       -2.9040681144
 H          1.4924262562       -4.0627217023       -3.3309509386
 H          0.6081172128       -4.9842412057       -2.0471730048
 H          0.5464859191       -1.9111174279       -2.4325290048
 O         -0.4879294630       -0.0176614048       -1.7387334546
