  62
        -98.93799082
 C         -1.2944487226       -1.7099939316       -0.1309342807
 C         -1.5463184954       -0.5826257704       -0.9511399774
 C         -2.9074948848       -0.0199732930       -0.8774215630
 C         -3.8145394666       -0.5774839346       -0.0568237735
 C         -5.2024202073       -0.0616120212        0.1971063402
 C         -5.1446727293        1.1475915369        1.1522379729
 C         -5.5894262531        2.4685386890        0.5244849015
 H         -6.6787504802        2.4760866062        0.4465400767
 H         -5.3016184164        3.2689363036        1.2095653872
 C         -5.0184244475        2.7726917779       -0.8638499970
 H         -5.5769396166        2.2184863088       -1.6198529456
 H         -5.2001452539        3.8321847429       -1.0566459546
 C         -3.5225961345        2.4892470467       -1.0555345560
 H         -2.9914169461        2.5264167948       -0.1034266605
 H         -3.1026188526        3.2847456764       -1.6751543321
 C         -3.2069103383        1.1579906797       -1.7629790018
 H         -4.0232128604        0.9045365329       -2.4455560317
 H         -2.3033272789        1.2946126768       -2.3642055832
 H         -5.7722659363        0.9543947829        2.0236709238
 H         -4.1202371165        1.2464300794        1.5187453825
 H         -5.6717583836        0.2151954717       -0.7442133143
 H         -5.7730226287       -0.8741581536        0.6474566336
 O         -3.5377047112       -1.6589404445        0.7166631275
 C         -2.2844074600       -2.2435445990        0.7001262030
 O         -2.1742445745       -3.2314040155        1.4546280951
 H          0.5793303939        0.2159784380        0.3795551815
 C          1.1239484292       -0.4289887440        1.0495675355
 C          0.9487722750       -1.8036322314        0.9885647306
 C          1.6406061279       -2.6067119621        1.8883922115
 C          2.4871625270       -2.0454100046        2.8267291094
 C          2.6707054361       -0.6757146851        2.8758021842
 C          1.9802467181        0.1378135125        1.9839228894
 N          2.1356649846        1.5290559589        2.0277590309
 S          2.0833327186        2.4388039056        0.6245375915
 O          2.7846049086        3.6568926656        0.9778033301
 O          0.7218372193        2.6077562592        0.1889509084
 C          3.0540143748        1.5184644987       -0.5546733362
 C          4.4068654517        1.4026531791       -0.2965267878
 C          5.1968503439        0.6683346038       -1.1643136293
 C          4.6223760694        0.0646271918       -2.2729809452
 C          3.2658143071        0.1971598316       -2.5210046282
 C          2.4671239428        0.9296166044       -1.6547385414
 H          1.4046172447        1.0327829613       -1.8131608831
 H          2.8172534045       -0.2701502644       -3.3835847574
 H          5.2354180025       -0.5109431196       -2.9485828605
 H          6.2532831408        0.5668717890       -0.9748941691
 H          4.8181925031        1.8992185423        0.5672772309
 H          2.8455142209        1.8589773200        2.6646204664
 H          3.3313675006       -0.2340539368        3.6059821244
 H          3.0123517233       -2.6794022085        3.5245470553
 H          1.4955145580       -3.6762763619        1.8611922146
 C          0.0441158479       -2.4255513769       -0.0504396919
 H         -0.1866551869       -3.4467952190        0.2840241023
 C          0.7808780871       -2.5116364706       -1.3735347635
 C          1.7856392346       -3.6018857145       -1.5850699556
 C          0.4785889267       -3.6336484831       -2.3181933791
 H          0.4688773396       -3.4250855994       -3.3773118819
 H         -0.2611813437       -4.3593188678       -2.0117962436
 H          2.6819814237       -3.3711123246       -2.1394606203
 H          1.9329943502       -4.3131939719       -0.7869893914
 H          0.9923849270       -1.5431511851       -1.8036707857
 O         -0.7006382626       -0.0552677667       -1.7210757397
