  62
        -98.92979450
 C          2.4451417755        1.0386483233        0.1265571122
 C          3.0016429893        0.0133282437        0.9298031164
 C          4.2591322883       -0.6014800493        0.4682204488
 C          4.8170044761       -0.1559135067       -0.6714772465
 C          6.0909118726       -0.6075455842       -1.3392269067
 C          7.3092304738       -0.7988777696       -0.4224197743
 C          7.7135637154       -2.2634932312       -0.2480633763
 H          7.6110400555       -2.7695486681       -1.2102185153
 H          8.7689682576       -2.3040962454        0.0305637693
 C          6.9263233308       -3.0304267815        0.8130667446
 H          7.2245981662       -2.6830564910        1.8047351104
 H          7.2109596847       -4.0826547299        0.7389151532
 C          5.4033821713       -2.9262980725        0.7041941431
 H          5.0891654802       -2.9781675946       -0.3374083215
 H          4.9741033586       -3.7941411536        1.2094881095
 C          4.8217051331       -1.6689258997        1.3671141837
 H          3.9859161990       -1.9494670413        2.0157768045
 H          5.5694818223       -1.2147493186        2.0244188246
 H          7.1179912194       -0.3414736142        0.5473220290
 H          8.1507860454       -0.2673518000       -0.8696300096
 H          5.8893518839       -1.5312570148       -1.8867570704
 H          6.3054175200        0.1581123907       -2.0881102900
 O          4.2389406971        0.8208399949       -1.4243150005
 C          3.0509809518        1.4406854953       -1.0640551094
 O          2.6731833576        2.3035062827       -1.8757931757
 H         -0.9580353201        0.7488951951        1.9881648572
 C         -1.0772565068        0.6242500986        0.9198864814
 C         -0.0607363048        1.0350470095        0.0696513926
 C         -0.2220784149        0.8505080486       -1.2997933991
 C         -1.3780785764        0.2760904279       -1.7970256621
 C         -2.3913877084       -0.1276845644       -0.9450187981
 C         -2.2384904855        0.0459787102        0.4235380467
 N         -3.2629495488       -0.3716176245        1.2917872920
 S         -4.8057042114        0.2402145673        1.0224698013
 O         -4.7491543326        1.5400798863        0.3951274862
 O         -5.4682630042        0.1722701068        2.3063918702
 C         -5.5527808793       -0.9401291972       -0.0804055849
 C         -5.6299779545       -2.2572893877        0.3280036790
 C         -6.2177755926       -3.1854921525       -0.5164047691
 C         -6.7184234206       -2.7827074598       -1.7457067176
 C         -6.6367846396       -1.4557195485       -2.1391349426
 C         -6.0484978765       -0.5222881619       -1.2998570187
 H         -5.9579456974        0.5189401939       -1.5655965191
 H         -7.0272834387       -1.1444422338       -3.0947033670
 H         -7.1757018176       -3.5073056320       -2.4008660706
 H         -6.2838016376       -4.2182825992       -0.2142271666
 H         -5.2338913754       -2.5282713315        1.2924308979
 H         -3.0202192492       -0.2984051996        2.2696107216
 H         -3.2930157078       -0.5752585162       -1.3302004484
 H         -1.4916178330        0.1418026125       -2.8621212865
 H          0.5638523735        1.1703310149       -1.9672673825
 C          1.1724892587        1.6883706083        0.6384589833
 H          1.1781906548        1.4860756726        1.7216728705
 C          1.1657166975        3.2018758771        0.4686435266
 C          0.3017939611        3.9313380104       -0.5107456459
 C         -0.0023752861        4.0095289360        0.9534259425
 H          0.1876287904        4.9341935225        1.4770375075
 H         -0.8692470691        3.4713098976        1.3085412548
 H         -0.3623482741        3.3572920869       -1.1369587918
 H          0.7254498219        4.7924586139       -1.0042450561
 H          2.1501242488        3.6261512209        0.6408764112
 O          2.4683946747       -0.3703026068        2.0072296150
