  62
        -98.94295974
 C          1.9715719301        1.5630865301        0.0100989903
 C          1.5950081107        0.3044090700       -0.5235216299
 C          2.6841854011       -0.6736456797       -0.6656792596
 C          3.9452382608       -0.3332234793       -0.3477299291
 C          5.1613257712       -1.2093150189       -0.4802877387
 C          5.3919379610       -2.1412576889        0.7171063813
 C          4.4090120613       -3.3070703892        0.8307113009
 H          4.3761990818       -3.8459323392       -0.1166607892
 H          4.8100841712       -3.9915514992        1.5809167309
 C          2.9880131910       -2.8978221597        1.2435493803
 H          3.0083807405       -1.8926317098        1.6710078304
 H          2.6296707509       -3.5690471299        2.0272388701
 C          1.9614973815       -2.9350385299        0.1111049399
 H          1.8345637919       -3.9651969000       -0.2284186802
 H          1.0043034212       -2.5845372103        0.5052330696
 C          2.3186482417       -2.0609679497       -1.0982320299
 H          3.1317883520       -2.5127114194       -1.6658834896
 H          1.4366832719       -1.9855314700       -1.7384025202
 H          5.3601186204       -1.5469337190        1.6334077214
 H          6.4005032512       -2.5506027686        0.6225095317
 H          5.0904092817       -1.7996144788       -1.3942298188
 H          6.0199333910       -0.5393937786       -0.5646366883
 O          4.2701150903        0.8976062908        0.1318924212
 C          3.2914918199        1.8497363804        0.3682126309
 O          3.7173875794        2.9001107605        0.8898428311
 H         -1.6207032599        2.4177649590       -0.6927574810
 C         -1.5045492901        1.9799624090        0.2861482090
 C         -0.2746180304        2.0239389493        0.9212342995
 C         -0.1495657307        1.4226169692        2.1705048995
 C         -1.2245530307        0.7860912788        2.7606253590
 C         -2.4494483804        0.7353866985        2.1184365785
 C         -2.5841112202        1.3334763786        0.8733785585
 N         -3.8224056599        1.2867781783        0.2063352080
 S         -4.5906751394       -0.1926223620        0.0573265376
 O         -5.5509386990       -0.0042098522       -1.0078012827
 O         -5.1358282497       -0.5778785723        1.3355906474
 C         -3.3356549988       -1.3524303015       -0.4484850420
 C         -2.8414728989       -2.2700399115        0.4548532881
 C         -1.8590323784       -3.1535224611        0.0388443584
 C         -1.3880275879       -3.1004611409       -1.2632297114
 C         -1.8898125879       -2.1674026509       -2.1560358715
 C         -2.8721399183       -1.2824737213       -1.7465165418
 H         -3.2935671183       -0.5510464114       -2.4174503919
 H         -1.5153342275       -2.1231273507       -3.1662271214
 H         -0.6224401676       -3.7895791806       -1.5835231411
 H         -1.4619860285       -3.8788701211        0.7313497185
 H         -3.2377916593       -2.2817782317        1.4571549080
 H         -3.8112498397        1.7579320683       -0.6869680819
 H         -3.2974073805        0.2369249282        2.5591912982
 H         -1.1090118009        0.3205604988        3.7280008290
 H          0.8113824491        1.4479487195        2.6672011999
 C          0.9456811797        2.6487624597        0.2921414200
 H          1.4191306892        3.3035890898        1.0419496702
 C          0.6216447299        3.5266380097       -0.9075486400
 C          1.6611446002        3.8227385501       -1.9457489696
 C          0.4786417606        2.9711407198       -2.2918816401
 H         -0.2796447193        3.3910352696       -2.9372747204
 H          0.6269675610        1.9109203399       -2.4225477102
 H          2.6249153803        3.3466140704       -1.8389393993
 H          1.7127510400        4.8233324802       -2.3481929895
 H         -0.0360397205        4.3485867595       -0.6399971002
 O          0.4265900909       -0.0014224703       -0.8704371004
