  62
        -98.94412515
 C         -2.5537580647       -1.1430059333       -0.0741937971
 C         -3.2046362941       -0.3512448605        0.9014810244
 C         -3.9726156106        0.7900306752        0.3919124275
 C         -4.0335906406        1.0144709579       -0.9336632653
 C         -4.7937815959        2.1235245389       -1.6091318939
 C         -4.0266661771        3.4510848512       -1.6794758943
 C         -3.8926522406        4.1951624954       -0.3502393651
 H         -3.5250669135        5.1974432594       -0.5788208736
 H         -4.8774930274        4.3053172901        0.1045954827
 C         -2.9334437198        3.5351410399        0.6503864551
 H         -2.2757155211        4.2939170260        1.0809933884
 H         -2.2951172208        2.8205247190        0.1247487812
 C         -3.6235699653        2.8215389183        1.8133796590
 H         -4.1640986606        3.5504207792        2.4212127736
 H         -2.8536177424        2.3663652996        2.4425650464
 C         -4.6013785111        1.7179297247        1.3873331749
 H         -4.8627358596        1.1315395085        2.2716392076
 H         -5.5101102867        2.1583875553        0.9780857691
 H         -3.0332710277        3.2587902467       -2.0914467534
 H         -4.5580818901        4.0981563774       -2.3809102891
 H         -4.9926004299        1.7869128694       -2.6287555300
 H         -5.7461507818        2.2780033626       -1.1015199836
 O         -3.4012092941        0.2238663512       -1.8401601630
 C         -2.6203592546       -0.8505718705       -1.4368364301
 O         -2.0572879419       -1.4520319334       -2.3696595600
 O         -3.1409095481       -0.5831589126        2.1399715545
 C         -1.7065138841       -2.3176762015        0.3798745324
 C         -0.2579367779       -2.0672962439        0.0353638139
 C          0.5527217446       -2.9956950928       -0.6031095543
 C          1.8748124500       -2.6946622274       -0.8837890525
 C          2.4168824264       -1.4723472880       -0.5333995171
 C          1.6197918894       -0.5412906747        0.1206484560
 C          0.2975230902       -0.8468046190        0.4020145082
 H         -0.3225696802       -0.1208013525        0.9147243908
 N          2.1580924021        0.7080452785        0.4765228124
 S          3.6059469834        0.7352833182        1.3288247296
 O          3.7722424716       -0.4579301718        2.1258634928
 O          3.5968628710        1.9917875949        2.0456037373
 C          4.8502640328        0.8012821223        0.0576188273
 C          5.8373970731       -0.1633201329        0.0078882701
 C          6.7995178278       -0.0862516755       -0.9872137846
 C          6.7581167891        0.9489605314       -1.9085241386
 C          5.7615263406        1.9114807862       -1.8428541661
 C          4.7972640828        1.8406605526       -0.8502991967
 H          4.0089389287        2.5695962818       -0.7618379987
 H          5.7325169930        2.7149359001       -2.5611693410
 H          7.5070492169        1.0065957380       -2.6825118739
 H          7.5753619828       -0.8330092059       -1.0398786719
 H          5.8265638835       -0.9522413573        0.7429772634
 H          1.4876600516        1.3302537902        0.9042105797
 H          3.4436763540       -1.2336493575       -0.7569771109
 H          2.4912638066       -3.4232053274       -1.3878018631
 H          0.1489521424       -3.9534303427       -0.8866798368
 H         -1.7929239585       -2.3315404673        1.4771933582
 C         -2.2503242176       -3.6199911322       -0.1666667666
 C         -2.0219154835       -4.9016264509        0.5758121961
 C         -3.3873864966       -4.2854611942        0.5470289647
 H         -4.1577733698       -4.7607381310       -0.0413435176
 H         -3.7553245011       -3.8114828981        1.4455184706
 H         -1.8567143365       -5.8046059885        0.0077906908
 H         -1.4629730815       -4.8519837080        1.4981708706
 H         -2.2559742514       -3.6471716571       -1.2502100396
