  62
        -98.94309490
 C         -1.8437740616       -0.8012109173        0.7141549318
 C         -2.8194435978       -1.1937467851       -0.2350081111
 C         -4.1612351845       -0.6178251454       -0.0516926697
 C         -4.3926039720        0.2180495397        0.9756580881
 C         -5.6933881977        0.9186333676        1.2387360250
 C         -5.7356919749        2.2896637113        0.5494169066
 C         -5.3270676872        2.2543732242       -0.9233693000
 H         -5.4252648875        3.2704913947       -1.3117616008
 H         -4.2703652411        1.9854270014       -0.9936322035
 C         -6.1538082617        1.2935160979       -1.7893028280
 H         -7.0849765288        1.0438693532       -1.2793649498
 H         -6.4194573446        1.8014738082       -2.7187871617
 C         -5.4268517572        0.0047428565       -2.1774928011
 H         -4.4505302157        0.2493129540       -2.6033633118
 H         -6.0098017024       -0.4919951875       -2.9575791861
 C         -5.2183581576       -1.0094030095       -1.0459272321
 H         -6.1682258195       -1.2006618620       -0.5429144540
 H         -4.8731938524       -1.9439063550       -1.4974331880
 H         -5.0559064534        2.9632458438        1.0767163416
 H         -6.7473037701        2.6898289667        0.6390396516
 H         -5.7958271804        1.0602823281        2.3160158322
 H         -6.5131791632        0.2967457314        0.8844334722
 O         -3.4369074139        0.5590016967        1.8778886816
 C         -2.1479244633        0.0681300919        1.7660971564
 O         -1.3736363836        0.4648382545        2.6613218659
 O         -2.6074521937       -1.9849757144       -1.1901373277
 C         -0.4021684032       -1.2872591758        0.6603747352
 C          0.3569288054       -0.5275958363       -0.4016873441
 C          0.1957386866       -0.7950025196       -1.7576740597
 C          0.8827492457       -0.0557178479       -2.7027006220
 C          1.7554394555        0.9472653163       -2.3186392180
 C          1.9218074965        1.2248353683       -0.9674578027
 C          1.2212569066        0.4900456556       -0.0206130918
 H          1.3423286870        0.7330398367        1.0249045187
 N          2.7993436506        2.2408545990       -0.5458737602
 S          3.9335402353        1.8807015207        0.6312238795
 O          3.2980603978        1.7411553762        1.9158243002
 O          4.9237282935        2.9288352193        0.5162306071
 C          4.6253456909        0.3245076137        0.1024947470
 C          5.5757200900        0.3383588819       -0.8999904949
 C          6.0661444129       -0.8663990284       -1.3760392363
 C          5.5924071670       -2.0591436381       -0.8508534779
 C          4.6398742563       -2.0564241508        0.1561443175
 C          4.1486166105       -0.8538361909        0.6394449515
 H          3.4115623838       -0.8072392470        1.4249377807
 H          4.2740883005       -2.9850804397        0.5644077459
 H          5.9690599480       -2.9976772737       -1.2254903461
 H          6.8111890870       -0.8724380775       -2.1551481254
 H          5.9234543564        1.2878490115       -1.2736302597
 H          3.2345728584        2.7452312781       -1.3053637004
 H          2.2949249488        1.5204653770       -3.0574650365
 H          0.7423210553       -0.2672986851       -3.7517844835
 H         -0.4972420378       -1.5618748485       -2.0645868326
 H          0.0320292174       -1.0186516983        1.6331829728
 C         -0.2924691471       -2.7887354348        0.4862484341
 C          0.9652520336       -3.4781062141        0.9172981226
 C         -0.2980378494       -3.6634551801        1.7020755942
 H         -0.8069878564       -4.6141993011        1.6499768636
 H         -0.3771422867       -3.1798613051        2.6655015528
 H          1.3289434835       -4.3039278493        0.3258698723
 H          1.7412065012       -2.8673007265        1.3533463171
 H         -0.8011132044       -3.1635353323       -0.3911802155
