  62
        -98.94326575
 C          2.3781490270        0.4722204350        0.0888890597
 C          3.4407945384        0.4051092546        1.0218143328
 C          4.4350872550       -0.6465795554        0.7832538676
 C          4.2819395377       -1.4853551730       -0.2577726472
 C          5.1958418760       -2.6255624135       -0.6168135141
 C          6.4200144179       -2.2092579317       -1.4438095297
 C          7.4971068553       -1.4449238139       -0.6730505992
 H          7.7638904695       -2.0022090287        0.2254436020
 H          8.3832403122       -1.4106284942       -1.3099701891
 C          7.1065324092       -0.0095459761       -0.2941970686
 H          6.2536005308        0.3077047873       -0.8985771043
 H          7.9324470100        0.6663358478       -0.5271694767
 C          6.7648581111        0.1856111955        1.1829311043
 H          6.4676747099        1.2269128492        1.3312097092
 H          7.6518608105       -0.0010983301        1.7923638167
 C          5.6265583529       -0.7089237585        1.6907466487
 H          5.9734296787       -1.7368670015        1.7938072192
 H          5.3154264296       -0.3437960815        2.6726720290
 H          6.8683333846       -3.1218734091       -1.8432423289
 H          6.0814323936       -1.6075293860       -2.2903696296
 H          5.5239977300       -3.1322511141        0.2911927613
 H          4.6014513936       -3.3239960476       -1.2096709668
 O          3.2329520454       -1.4019244555       -1.1185674646
 C          2.2639264223       -0.4188294011       -0.9780415772
 O          1.3745390769       -0.4487653412       -1.8494361411
 O          3.5476760142        1.1809310693        2.0093132606
 C          1.3141605758        1.5403844539        0.2683930467
 C         -0.0256274553        0.8856553944        0.4970325783
 C         -0.1626961750        0.0109114329        1.5726196631
 C         -1.3650816919       -0.6203702065        1.8221366748
 C         -2.4597273720       -0.3964844516        1.0043727888
 C         -2.3379816105        0.4799549210       -0.0638418475
 C         -1.1278115611        1.1196067892       -0.3082377718
 H         -1.0504389629        1.7949107153       -1.1459671215
 N         -3.4389958359        0.7040583678       -0.9044559209
 S         -4.9461392617        0.9892715348       -0.2310461264
 O         -5.6779989690        1.7181780932       -1.2438534386
 O         -4.8383058653        1.6239906833        1.0619660107
 C         -5.6573805297       -0.6339020024       -0.0584040626
 C         -6.1618286833       -1.0382541974        1.1619890719
 C         -6.7236572526       -2.3009215929        1.2700372462
 C         -6.7718107577       -3.1318145688        0.1612620200
 C         -6.2629132171       -2.7096831586       -1.0580214327
 C         -5.7007972850       -1.4484328260       -1.1728478457
 H         -5.2963468878       -1.0836060660       -2.1022849295
 H         -6.3012064675       -3.3589700398       -1.9179049161
 H         -7.2083588300       -4.1143256106        0.2475141239
 H         -7.1200768263       -2.6309045859        2.2168456751
 H         -6.0980596076       -0.3605549604        1.9985045956
 H         -3.2520196865        1.3293979699       -1.6742784534
 H         -3.3997782242       -0.8895538284        1.1903421058
 H         -1.4531874664       -1.2967617312        2.6588654104
 H          0.6929077818       -0.1671411062        2.2098412289
 H          1.5910117548        2.0741322024        1.1895290296
 C          1.3372953970        2.5195230220       -0.8856798420
 C          0.7969059100        3.9058219917       -0.7043533597
 C          2.2741821527        3.6871218167       -0.8286859957
 H          2.7675174422        3.9972763600       -1.7376729591
 H          2.8841773692        3.7922312128        0.0565286286
 H          0.2768122873        4.3706558720       -1.5286611531
 H          0.4010747939        4.1643404096        0.2663087786
 H          1.2007064600        2.0375444083       -1.8473608721
