  62
        -98.93163520
 C         -2.2379828021        0.6224586305       -0.1879236164
 C         -3.5065611163        0.9776560843       -0.7092448005
 C         -4.6905841144        0.4902994309        0.0191275353
 C         -4.5205691117       -0.2863559584        1.1050274438
 C         -5.5227991329       -0.8868875881        2.0687024430
 C         -7.0076599752       -0.9406469837        1.7186926826
 C         -7.3583653879       -1.8757528112        0.5618741227
 H         -8.4205058537       -1.7572684092        0.3369677308
 H         -7.2001602592       -2.9066094116        0.8885658445
 C         -6.5533384845       -1.6706924691       -0.7189606186
 H         -6.9010565356       -2.4028070645       -1.4528798528
 H         -5.4994190360       -1.8836554900       -0.5280210590
 C         -6.6732538082       -0.2860803868       -1.3526478511
 H         -7.7256763095       -0.0455626562       -1.5148847040
 H         -6.1852279047       -0.3281832215       -2.3301408414
 C         -6.0238488248        0.8634571494       -0.5625546022
 H         -6.6892631492        1.2371354006        0.2120631555
 H         -5.8353614574        1.6861066850       -1.2584808494
 H         -7.3863381691        0.0593410521        1.5289814055
 H         -7.5231995429       -1.3103057404        2.6092567566
 H         -5.4075137590       -0.3256796543        3.0026957902
 H         -5.1656620580       -1.9010023447        2.2740099258
 O         -3.2778513670       -0.6337157439        1.5493787140
 C         -2.1133692108       -0.2094169808        0.9241131808
 O         -1.0753563035       -0.6462405560        1.4537713342
 O         -3.6479882584        1.6806289643       -1.7455720741
 C         -1.0092299296        1.1259866399       -0.9223937437
 C         -0.0198891039        0.0081311272       -1.1306393172
 C         -0.3768533768       -1.0577472426       -1.9532236875
 C          0.4973983381       -2.1036693374       -2.1741945428
 C          1.7537917535       -2.1010081443       -1.5939739595
 C          2.1159334420       -1.0470384008       -0.7642647893
 C          1.2311206358       -0.0021849432       -0.5366040032
 H          1.5315628877        0.7909947317        0.1273199808
 N          3.3712317682       -1.0294778559       -0.1361627854
 S          4.1362095502        0.4556007621        0.0946086614
 O          3.6621304702        1.0528643767        1.3174219812
 O          4.0166282267        1.2651445258       -1.0979601081
 C          5.8229597157       -0.0842100865        0.3079874184
 C          6.2003794251       -0.6011726469        1.5332482970
 C          7.5001759859       -1.0523849026        1.6979266012
 C          8.3959694511       -0.9799105856        0.6412026782
 C          8.0033862988       -0.4567524215       -0.5815310494
 C          6.7041692192       -0.0052000633       -0.7537016532
 H          6.3557039387        0.4156070202       -1.6831374938
 H          8.7030648426       -0.3984880718       -1.3996500578
 H          9.4072615079       -1.3308713407        0.7728795019
 H          7.8097112256       -1.4570344484        2.6480255878
 H          5.4719489501       -0.6291696839        2.3270167339
 H          4.0048289453       -1.7295635306       -0.4964508033
 H          2.4413662108       -2.9143847330       -1.7701831920
 H          0.2040952850       -2.9240985601       -2.8119953409
 H         -1.3566342802       -1.0558458269       -2.4121626393
 H         -1.3877183903        1.4293674300       -1.9136052692
 C         -0.3780784974        2.3645417270       -0.3048053663
 C         -1.2117099316        3.3907263860        0.4005202404
 C         -0.2459190826        2.5481851820        1.1759558715
 H          0.6580730391        3.0049078815        1.5532752501
 H         -0.6333305869        1.7689996143        1.8137931722
 H         -0.9799128382        4.4340016269        0.2479118075
 H         -2.2669714637        3.1867106559        0.5097144089
 H          0.4409597969        2.7428603264       -0.9110839359
