  62
        -98.93798744
 C         -1.3628334306       -1.6151130397        0.1591194194
 C         -1.4079256804       -0.3996543095       -0.5653877402
 C         -2.4660010702        0.5458860506       -0.1708489300
 C         -3.2614901304        0.2507865103        0.8722640798
 C         -4.4237421703        1.0762069104        1.3461526100
 C         -5.6419728603        0.8402853409        0.4302042297
 C         -6.0732876000        2.0655606412       -0.3765715999
 H         -6.7836334399        1.7244437616       -1.1327918001
 H         -6.6029172599        2.7560359111        0.2832607903
 C         -4.9486398298        2.8459180813       -1.0643392895
 H         -4.4578313997        3.4961800510       -0.3388465992
 H         -5.4213385696        3.5013534016       -1.7989585593
 C         -3.8794820198        2.0027816914       -1.7717407496
 H         -4.2800154499        1.0267064915       -2.0463262000
 H         -3.6100522896        2.5077350516       -2.7016283394
 C         -2.5791149599        1.8160372309       -0.9668011195
 H         -1.7352233499        1.7850220710       -1.6615892694
 H         -2.4350420499        2.6758569806       -0.3091198292
 H         -5.4049373303        0.0197156511       -0.2503856605
 H         -6.4913015404        0.5119454108        1.0312835195
 H         -4.1512372202        2.1289044103        1.3558523404
 H         -4.6503785205        0.7633352601        2.3655281398
 O         -3.1450899707       -0.8998849599        1.5847280595
 C         -2.2142380508       -1.8623524600        1.2398081192
 O         -2.2386238611       -2.8801941802        1.9598810689
 O         -0.6221644102       -0.1065599293       -1.5045591400
 C         -0.3569582308       -2.7103751498       -0.1652586308
 C          1.0102544492       -2.2510303602        0.2772892195
 C          1.4351916290       -2.5086835007        1.5769829395
 C          2.6582758991       -2.0443441710        2.0253498298
 C          3.4762026593       -1.3004114809        1.1924287101
 C          3.0504905395       -1.0219731404       -0.0994270698
 C          1.8344288495       -1.5104352400       -0.5563328901
 H          1.5103644996       -1.2755669596       -1.5574619401
 N          3.8566265497       -0.2313135402       -0.9456281494
 S          4.2361284999        1.3055807895       -0.3986554289
 O          4.7062010802        2.0220776399       -1.5622644186
 O          5.1660350398        1.1957944590        0.6973404612
 C          2.6983502800        2.0007956596        0.1774561512
 C          2.3126668198        1.7953270392        1.4867893011
 C          1.0909381198        2.2929055093        1.9092702811
 C          0.2854411100        2.9900560997        1.0231704912
 C          0.6890417302        3.1925059801       -0.2870493487
 C          1.9030571402        2.6854386200       -0.7188093987
 H          2.2524439103        2.8213678303       -1.7297218686
 H          0.0609087704        3.7370875204       -0.9734020686
 H         -0.6618988200        3.3803670997        1.3606954912
 H          0.7709206196        2.1341840690        2.9268262410
 H          2.9713111096        1.2612600189        2.1514227410
 H          3.4846174999       -0.1651058098       -1.8831575995
 H          4.4265020093       -0.9173900311        1.5280760104
 H          2.9780669789       -2.2606220814        3.0335518198
 H          0.7867814889       -3.0683828808        2.2365349892
 H         -0.6414604310       -3.5691547699        0.4566311188
 C         -0.4110369607       -3.1286182893       -1.6203142610
 C          0.2609871292       -4.4015041192       -2.0362584913
 C         -1.2349755108       -4.3170903990       -2.0104649115
 H         -1.7667708707       -4.2892291886       -2.9498306415
 H         -1.7630583210       -4.8402082992       -1.2264472717
 H          0.7583152193       -4.4350920590       -2.9935361613
 H          0.7493073190       -4.9808827796       -1.2671883015
 H         -0.3912134104       -2.2971117990       -2.3127173407
