  62
        -98.94331085
 C         -2.3518614974       -0.5483165916        0.1220178261
 C         -3.3804662706       -0.3106908836        1.0669914874
 C         -4.3258661184        0.7626924953        0.7352677435
 C         -4.1486693995        1.4667090040       -0.3977405856
 C         -5.0609394485        2.5556048797       -0.8816875914
 C         -6.1576021674        1.9949271894       -1.7979945934
 C         -6.8823039128        0.7788393105       -1.2210455662
 H         -7.6533149042        0.4891233056       -1.9382960256
 H         -6.1796600423       -0.0546878979       -1.1508828129
 C         -7.5250423031        1.0158008662        0.1527128977
 H         -7.6258069981        2.0862791969        0.3350378129
 H         -8.5315389684        0.5921505818        0.1461728570
 C         -6.7782187092        0.3710740346        1.3218861657
 H         -7.4250476820        0.4119578738        2.2022968475
 H         -6.5927855375       -0.6832139355        1.1013396651
 C         -5.4445483528        1.0255651917        1.7039115317
 H         -5.1233814427        0.5938580036        2.6563528117
 H         -5.5884294665        2.0986816876        1.8449027928
 H         -6.8788291574        2.7891551702       -1.9990529779
 H         -5.7003984358        1.7028076041       -2.7461978575
 H         -4.4658077121        3.2784583701       -1.4421688205
 H         -5.5089738415        3.0548072201       -0.0247733957
 O         -3.1317233440        1.2310910134       -1.2645172353
 C         -2.2126633652        0.2169441422       -1.0359111013
 O         -1.3465812680        0.1066167074       -1.9241902578
 O         -3.5007193629       -0.9656546325        2.1368645812
 C         -1.3479853325       -1.6517320926        0.4120938163
 C          0.0025330991       -1.0245225955        0.6532918673
 C          0.2219206764       -0.3475575272        1.8505823201
 C          1.4314571349        0.2709118608        2.1011322452
 C          2.4470265976        0.2352014540        1.1607733582
 C          2.2387336133       -0.4360447975       -0.0356577192
 C          1.0256254661       -1.0686793926       -0.2796583575
 H          0.8760928646       -1.5782637356       -1.2184648385
 N          3.2558058433       -0.4576514908       -1.0033115814
 S          4.8143889478       -0.8602655557       -0.5395035043
 O          5.4501580531       -1.3596439851       -1.7392732250
 O          4.8158034476       -1.7451740648        0.6024750703
 C          5.5508583820        0.7008501487       -0.1024963218
 C          6.1478835364        0.8598781760        1.1326495612
 C          6.7271912109        2.0799579836        1.4450717973
 C          6.7000979831        3.1133793025        0.5212994819
 C          6.0980268832        2.9368794443       -0.7157565050
 C          5.5181116059        1.7194822151       -1.0345393471
 H          5.0425821369        1.5418805495       -1.9848404754
 H          6.0781568208        3.7429602460       -1.4314884767
 H          7.1506820324        4.0622254453        0.7663596609
 H          7.1956586681        2.2192609118        2.4061189961
 H          6.1403477623        0.0299759943        1.8212767978
 H          2.9939840478       -0.9178887992       -1.8625667807
 H          3.3917283189        0.7197124039        1.3463192096
 H          1.5865425685        0.7895044579        3.0350562801
 H         -0.5754688438       -0.3105501110        2.5800441468
 H         -1.6824885890       -2.1073021356        1.3545043689
 C         -1.3536186195       -2.7116044806       -0.6688222074
 C         -0.7273625107       -4.0456891420       -0.3962124519
 C         -2.2173038461       -3.9239585607       -0.5005718747
 H         -2.7085636475       -4.3313138654       -1.3715562404
 H         -2.8011938366       -3.9992640562        0.4049921054
 H         -0.1940760537       -4.5399195592       -1.1942599455
 H         -0.2967019675       -4.2026762011        0.5812947464
 H         -1.2655551440       -2.3029136420       -1.6686281363
