  62
        -98.93762702
 C         -2.6395624097       -1.1148802837        0.2046563384
 C         -2.7259970714       -0.2437038827       -0.9071287160
 C         -3.5260202570        0.9783416485       -0.7136194288
 C         -4.1208411500        1.1995991271        0.4710759878
 C         -5.0059348344        2.3530364322        0.8722474821
 C         -4.5591908125        3.7630348249        0.4589521721
 C         -3.0391643241        3.9717757730        0.3898550260
 H         -2.7786001307        4.8670297550        0.9577704665
 H         -2.5231892074        3.1304218346        0.8563748895
 C         -2.5256980129        4.1573549138       -1.0403794474
 H         -1.5541609120        4.6558639932       -1.0022553317
 H         -3.2116139964        4.8191654723       -1.5736097913
 C         -2.3434752839        2.8717962724       -1.8467535235
 H         -2.0944742180        3.1514707986       -2.8730476184
 H         -1.4942748271        2.3039065092       -1.4560783726
 C         -3.5586399873        1.9303313500       -1.8742662952
 H         -4.4904868720        2.4891972937       -1.9115489816
 H         -3.4837310955        1.3127429265       -2.7732049971
 H         -4.9880793623        4.4550661753        1.1855907531
 H         -4.9942005560        4.0140249692       -0.5074419023
 H         -6.0087195495        2.1655259611        0.4778883402
 H         -5.0725558778        2.2942049348        1.9613182016
 O         -4.0088462007        0.3304880307        1.5168885254
 C         -3.2610995992       -0.8307410175        1.4180117985
 O         -3.2224123073       -1.5102016138        2.4653777772
 H         -0.3406214518       -0.4149978374        1.1210670085
 C          0.2268737674       -0.9864338039        0.3951671414
 C         -0.3850238901       -2.0544502978       -0.2495796554
 C          0.3622858563       -2.7898019984       -1.1600940138
 C          1.6758361889       -2.4454402903       -1.4296088507
 C          2.2717341376       -1.3668256032       -0.8030582549
 C          1.5386507700       -0.6327709247        0.1203639311
 N          2.1301298425        0.4734098506        0.7563953123
 S          3.6195787566        0.2541684569        1.5014067885
 O          3.7903678116       -1.1077805995        1.9517380883
 O          3.6865948953        1.2806753666        2.5188688549
 C          4.7976307609        0.6274105021        0.2200461412
 C          4.6967998030        1.8462312987       -0.4217189329
 C          5.6119390755        2.1566063327       -1.4147927162
 C          6.6082295739        1.2497402130       -1.7449462614
 C          6.6974987465        0.0314516092       -1.0891968107
 C          5.7843115414       -0.2859471807       -0.0955506810
 H          5.8101498687       -1.2231209096        0.4372241519
 H          7.4724002805       -0.6721368025       -1.3478660659
 H          7.3190365751        1.4945145657       -2.5183519954
 H          5.5450369188        3.1026237730       -1.9275840864
 H          3.9096625010        2.5230945530       -0.1337675109
 H          1.5014674826        0.9721743318        1.3691446028
 H          3.2910758351       -1.0901151765       -1.0173857889
 H          2.2422725922       -3.0232082050       -2.1438267512
 H         -0.0852718927       -3.6315399649       -1.6623680729
 C         -1.8158561654       -2.3848058825        0.1045572511
 H         -1.8199853882       -2.8310854188        1.1106781891
 C         -2.4673362963       -3.3541896054       -0.8603440093
 C         -2.3315822391       -4.8324883019       -0.6573264048
 C         -3.6419228068       -4.1565615041       -0.3902391202
 H         -4.4602915141       -4.3240550872       -1.0741618282
 H         -3.9520089634       -4.0236863767        0.6364730332
 H         -1.7552379152       -5.1711161239        0.1905829711
 H         -2.2538119496       -5.4675853109       -1.5268908178
 H         -2.4938464366       -2.9739040232       -1.8749090565
 O         -2.1673261556       -0.4728768896       -2.0100403545
