  62
        -98.93698635
 C          2.1322395019        1.1626760287        0.0710060048
 C          2.1053345953       -0.0018512991       -0.7374488985
 C          2.7949321444       -1.1769192352       -0.1776494825
 C          3.3627402035       -1.1175463590        1.0387314519
 C          4.0750944980       -2.2392740411        1.7453597471
 C          5.5437437867       -2.4055570519        1.3313022393
 C          5.7652324266       -2.9959534068       -0.0618626010
 H          6.8219346355       -3.2610109102       -0.1331057150
 H          5.1902799163       -3.9171684389       -0.1602353754
 C          5.4170191476       -2.0452883210       -1.2157206003
 H          5.3593172312       -1.0213042261       -0.8395277645
 H          6.2152411209       -2.0687666988       -1.9610157543
 C          4.1121767554       -2.3782075020       -1.9397345506
 H          4.2029103732       -3.3484709495       -2.4332102581
 H          3.9438835396       -1.6224117518       -2.7112261926
 C          2.8766372418       -2.4069813086       -1.0305551361
 H          1.9825266883       -2.4322898293       -1.6592229628
 H          2.8871999555       -3.3012205913       -0.4073334784
 H          6.0365094450       -1.4329147381        1.3974673042
 H          6.0144473358       -3.0676088036        2.0616621696
 H          4.0419319154       -2.0036452492        2.8112323570
 H          3.5392287333       -3.1743376285        1.5794014911
 O          3.3380288381        0.0104412359        1.7989098842
 C          2.7342755901        1.1650665660        1.3323689749
 O          2.8027998791        2.1292964343        2.1222309693
 O          1.5578425406       -0.0848187093       -1.8660601977
 C          1.4687445224        2.4783035146       -0.3037107915
 C          0.1166877759        2.5913564074        0.3551264812
 C         -0.2906414763        3.7846852393        0.9406690662
 C         -1.5399270911        3.8906289814        1.5250971970
 C         -2.4067517388        2.8134882457        1.5285644245
 C         -2.0027214447        1.6097789929        0.9601977361
 C         -0.7462989514        1.5053385631        0.3811678183
 H         -0.4453110771        0.5660424126       -0.0591995335
 N         -2.8465897707        0.4890912016        0.9909799477
 S         -2.7591233635       -0.6283970610       -0.2725618246
 O         -1.6958969679       -1.5598707634        0.0075343045
 O         -2.7133008499        0.0654310501       -1.5388490269
 C         -4.3356381451       -1.4398105280       -0.0785773796
 C         -5.4070331074       -1.0277043858       -0.8484381989
 C         -6.6378015293       -1.6390469401       -0.6674193063
 C         -6.7764348197       -2.6448358116        0.2771989976
 C         -5.6916725436       -3.0492117626        1.0412866556
 C         -4.4582061396       -2.4424968859        0.8646922281
 H         -3.5848803898       -2.7279471836        1.4278943212
 H         -5.8020231939       -3.8338734985        1.7722650875
 H         -7.7350241406       -3.1189928027        0.4166921718
 H         -7.4814827490       -1.3294293364       -1.2628232351
 H         -5.2487731704       -0.2483646060       -1.5764843994
 H         -3.8012963572        0.7172739210        1.2322893571
 H         -3.3839881264        2.8952046641        1.9793537325
 H         -1.8442668956        4.8223326809        1.9770865496
 H          0.3862217167        4.6263812768        0.9472662685
 H          2.1070626381        3.2660888780        0.1309314321
 C          1.4015426186        2.7328834871       -1.8021709016
 C          0.1693912534        2.5109479801       -2.6209611809
 C          0.6353769506        3.9060191171       -2.3392366545
 H          1.0691790885        4.4772415265       -3.1460014373
 H          0.0600960207        4.4919906283       -1.6387133764
 H          0.2990125139        2.1043860833       -3.6125370572
 H         -0.7174238380        2.1424190090       -2.1271149978
 H          2.3441989012        2.5039576069       -2.2889830943
