  62
        -98.93994232
 C         -2.7765543843        0.0145666610       -0.4366082142
 C         -2.8538842330        0.9735988964        0.6078395847
 C         -2.3384835212        2.3113985035        0.3107530441
 C         -1.8523112352        2.5747645126       -0.9151948879
 C         -1.2245669776        3.8670644464       -1.3604147240
 C          0.2590391934        3.9743495145       -0.9785216072
 C          0.5293651543        4.2612200605        0.4996723801
 H          1.5742705395        4.5679255403        0.5784761878
 H         -0.0838179300        5.1021635915        0.8266820874
 C          0.2994870003        3.0580664561        1.4253559373
 H          1.1306164245        2.9784779936        2.1307297951
 H          0.2985929975        2.1409020455        0.8309058450
 C         -0.9832852669        3.1266444138        2.2549309748
 H         -0.9139478118        3.9521314667        2.9676986636
 H         -1.0726762056        2.1958988020        2.8213367420
 C         -2.2664133456        3.3021373888        1.4332308392
 H         -3.1203004368        3.1200614643        2.0908155513
 H         -2.3316487263        4.3188131453        1.0462860454
 H          0.6925876397        4.7828140291       -1.5723357079
 H          0.7572086738        3.0428422739       -1.2606360384
 H         -1.7758961830        4.7119136961       -0.9460983615
 H         -1.3056461444        3.8959677342       -2.4491611425
 O         -1.8866911263        1.6632473928       -1.9198295831
 C         -2.2888265915        0.3477359499       -1.7008204666
 O         -2.1866306006       -0.3700527897       -2.7138154596
 O         -3.3223150651        0.7075176286        1.7480859916
 C         -3.0839992689       -1.4139992243       -0.0182497381
 C         -1.9353147620       -1.9014012985        0.8351779837
 C         -2.1384065172       -2.6750974430        1.9705466465
 C         -1.0620305619       -3.0790503704        2.7422997383
 C          0.2271173984       -2.7031347930        2.4124110813
 C          0.4390592735       -1.9104548123        1.2878174972
 C         -0.6379560512       -1.5427211510        0.4984069422
 H         -0.4639023636       -0.9482724157       -0.3856154351
 N          1.7228943618       -1.4362492925        0.9783351100
 S          2.0738281618       -0.7800470212       -0.5315897911
 O          1.3764796057        0.4710796924       -0.6783187740
 O          1.8697244383       -1.7711233596       -1.5660341646
 C          3.8149791739       -0.4675097764       -0.3187273465
 C          4.2003833093        0.6932894720        0.3246080243
 C          5.5509293729        0.9346793472        0.5194174639
 C          6.4883198516        0.0160633159        0.0704331335
 C          6.0867336375       -1.1430744943       -0.5762818942
 C          4.7371885847       -1.3906391336       -0.7736507743
 H          4.3783132614       -2.2718405686       -1.2808345960
 H          6.8178805165       -1.8528723263       -0.9281540383
 H          7.5389245505        0.2066422443        0.2223754605
 H          5.8666416205        1.8367094127        1.0182094710
 H          3.4346435643        1.3805550414        0.6457977333
 H          2.4732986065       -2.0074899045        1.3392428358
 H          1.0620477850       -3.0017461143        3.0270458748
 H         -1.2303794935       -3.6845725318        3.6199350469
 H         -3.1446284703       -2.9420555031        2.2581566909
 H         -3.9724163632       -1.3567746404        0.6324848705
 C         -3.4092320714       -2.3638322829       -1.1573403571
 C         -2.3929898088       -3.2844758059       -1.7564523480
 C         -3.5011520832       -3.8420164522       -0.9171436500
 H         -4.2896193019       -4.3923143116       -1.4074564219
 H         -3.2452309655       -4.2098190776        0.0645609543
 H         -2.4170241763       -3.4270342117       -2.8259152521
 H         -1.3917340014       -3.2675470261       -1.3517103884
 H         -4.1288060867       -1.9357112878       -1.8467895307
