  62
        -98.93918106
 C         -2.3474908109       -1.2690291189       -0.0187862748
 C         -3.1461485977       -0.5524570845        0.8992446969
 C         -3.8856570157        0.6130445518        0.3761961370
 C         -3.7461063928        0.9355955236       -0.9234103052
 C         -4.3512001553        2.1001082307       -1.6611139933
 C         -3.6389720967        3.4274509263       -1.3520981862
 C         -3.3124067549        3.6553382778        0.1218122756
 H         -2.6900802732        2.8330835906        0.4812858904
 H         -2.7112505883        4.5660990319        0.1913330180
 C         -4.5212409218        3.8200232085        1.0402813951
 H         -4.1402714131        4.0524423954        2.0381078126
 H         -5.1110218892        4.6751674330        0.7030243960
 C         -5.4464880317        2.6068212637        1.1544710902
 H         -6.0838129837        2.5175731295        0.2790418989
 H         -6.1105603023        2.7843397592        2.0054027675
 C         -4.7363862877        1.2845371898        1.4277590959
 H         -5.4878364694        0.5401994393        1.7179907232
 H         -4.0917919492        1.3996319494        2.3067464329
 H         -4.2585364229        4.2465630914       -1.7208077709
 H         -2.6962147804        3.4413629507       -1.9054053818
 H         -4.2409722752        1.8878078073       -2.7267595633
 H         -5.4129638004        2.1691781585       -1.4444025714
 O         -2.9483658624        0.2235387782       -1.7706764265
 C         -2.2314648388       -0.8829802757       -1.3537310057
 O         -1.5491592261       -1.4236026881       -2.2443117972
 O         -3.2329089837       -0.8612640043        2.1198191423
 C         -1.5540366402       -2.4680331632        0.4683850057
 C         -0.0798823881       -2.2154648310        0.2668984952
 C          0.7807330061       -3.1183475079       -0.3422051396
 C          2.1175067009       -2.8027251161       -0.5170959128
 C          2.6257435817       -1.5918260380       -0.0851744351
 C          1.7751464681       -0.6837709501        0.5322934252
 C          0.4389554089       -1.0041167218        0.7088597598
 H         -0.2237236177       -0.2922117154        1.1870136508
 N          2.2834102150        0.5482415491        0.9867135320
 S          3.1013463946        1.5045904465       -0.1292663696
 O          2.9639340629        2.8580879572        0.3645384105
 O          2.6427167987        1.2618647669       -1.4775170334
 C          4.7981246378        0.9944470242        0.0452040241
 C          5.3818359533        1.0905233614        1.2933655893
 C          6.7026894861        0.7003288494        1.4456386390
 C          7.4139857633        0.2263118837        0.3532268386
 C          6.8145032967        0.1394519098       -0.8939543342
 C          5.4929863143        0.5272224149       -1.0530128277
 H          4.9824139749        0.4721735283       -2.0014495928
 H          7.3687726872       -0.2288830130       -1.7422088266
 H          8.4418520538       -0.0771471399        0.4742322880
 H          7.1722682310        0.7666051616        2.4138089270
 H          4.7949206713        1.4680910026        2.1138769046
 H          1.5975767951        1.1042540976        1.4779052633
 H          3.6641759624       -1.3405480633       -0.2266398261
 H          2.7729662652       -3.5110795028       -1.0002755254
 H          0.4032299835       -4.0647238973       -0.6924613247
 H         -1.7473904742       -2.5266097888        1.5500281811
 C         -2.0518757397       -3.7389787883       -0.1856743410
 C         -1.9120192643       -5.0543138794        0.5190469695
 C         -3.2613290656       -4.4177565533        0.3815163684
 H         -3.9741239112       -4.8554855231       -0.3010640919
 H         -3.7121835285       -3.9750673745        1.2577617036
 H         -1.7000300116       -5.9341845557       -0.0692673686
 H         -1.4483282855       -5.0517577133        1.4937459053
 H         -1.9493369624       -3.7187017083       -1.2648760650
