  62
        -98.93761268
 C         -2.4750753167       -1.0026400927        0.5197551847
 C         -3.5180540805       -0.9115256373       -0.4345834082
 C         -4.7387057341       -0.2281860937        0.0168273194
 C         -4.8123572966        0.2764211901        1.2608097028
 C         -5.9967675272        0.9790332348        1.8669951309
 C         -6.0878114836        2.4709061933        1.5181417471
 C         -6.5009779176        2.7790334570        0.0784244352
 H         -7.4132113780        2.2320517939       -0.1618609201
 H         -6.7385505538        3.8437891156        0.0341600238
 C         -5.4222199790        2.4707409058       -0.9693501232
 H         -4.4522660049        2.3701974817       -0.4764917415
 H         -5.3403191093        3.3084763624       -1.6656362552
 C         -5.6866166774        1.2154293525       -1.8004825146
 H         -6.5855402821        1.3581893082       -2.4044774068
 H         -4.8433373935        1.0713575401       -2.4806925975
 C         -5.8528930624       -0.0656382187       -0.9731610443
 H         -6.8162469653       -0.0621383588       -0.4637805446
 H         -5.8193114339       -0.9193120220       -1.6544644968
 H         -5.1230139587        2.9385122878        1.7279250687
 H         -6.8261795847        2.9170417712        2.1884361431
 H         -6.9152801465        0.4765657796        1.5621856002
 H         -5.8918390543        0.8849208557        2.9500106303
 O         -3.7848664358        0.1802199548        2.1457317609
 C         -2.6021231321       -0.4463778658        1.7969248394
 O         -1.7456018769       -0.4562358466        2.7048465168
 H          1.2596968995       -0.8110476955        1.0778631625
 C          1.0219856633       -0.4433706307        0.0884941522
 C         -0.1919871137       -0.7846260649       -0.4896622337
 C         -0.4889667720       -0.2952428871       -1.7570192785
 C          0.4076625199        0.5244278011       -2.4182240173
 C          1.6149407018        0.8684726395       -1.8362641558
 C          1.9241335545        0.3800577924       -0.5741300869
 N          3.1450826486        0.7340869516        0.0259118364
 S          4.5176602622        0.7121446420       -0.9612366704
 O          4.6204956791        1.9881433958       -1.6242788997
 O          4.4850806844       -0.4468035385       -1.8239712059
 C          5.8171957841        0.5484560009        0.2468838485
 C          6.2758952804       -0.7154588111        0.5673544327
 C          7.2715326536       -0.8450874954        1.5225926519
 C          7.7869199731        0.2850600760        2.1395040792
 C          7.3166591574        1.5467929430        1.8068247261
 C          6.3216342635        1.6838435915        0.8518834261
 H          5.9328031737        2.6438966797        0.5550217837
 H          7.7224911451        2.4226921677        2.2866924717
 H          8.5624794548        0.1814684081        2.8818666311
 H          7.6414566504       -1.8243414054        1.7806653775
 H          5.8542511547       -1.5651094503        0.0543424754
 H          3.3029470087        0.2459498871        0.8966732657
 H          2.3249696679        1.5010567335       -2.3450874017
 H          0.1650823486        0.9001501343       -3.4012247548
 H         -1.4299687994       -0.5585573036       -2.2149914645
 C         -1.1471844813       -1.6923918129        0.2492818943
 H         -0.7153293750       -1.8928551398        1.2392285961
 C         -1.2953827576       -3.0138711477       -0.4804818942
 C         -0.1987245023       -4.0280798676       -0.3708057081
 C         -1.5126646184       -4.2673143016        0.3096741292
 H         -2.1743424155       -5.0201740804       -0.0912681553
 H         -1.5535539518       -4.1788954000        1.3858490174
 H          0.6532931255       -3.7800484593        0.2442000383
 H          0.0460499700       -4.6168812413       -1.2414122166
 H         -1.8095012561       -2.9270339419       -1.4279843669
 O         -3.4647340271       -1.3715134871       -1.6056249917
