  62
        -98.93888134
 C          1.8337315308        0.7658591835        0.4506221867
 C          2.5317951484        0.3195222123       -0.6951758182
 C          3.6574259591       -0.6047720191       -0.4593258558
 C          3.9388429002       -1.0018519293        0.7954233890
 C          4.9900402205       -1.9533300823        1.3281464531
 C          6.1700043664       -2.3809586215        0.4590763370
 C          7.1541835290       -1.2623675780        0.1190269968
 H          7.6775262359       -0.9700413831        1.0329177329
 H          7.8964960080       -1.6615580078       -0.5756461980
 C          6.5381778209       -0.0017402618       -0.4827294205
 H          5.8737732950        0.4661720822        0.2465709517
 H          7.3490437257        0.7051072314       -0.6785533460
 C          5.7747657338       -0.2065343159       -1.7899025137
 H          6.4157256065       -0.7116163849       -2.5150027277
 H          5.5343425553        0.7827429342       -2.1882611643
 C          4.4552906249       -0.9896420592       -1.6715280597
 H          3.8345791152       -0.7403220741       -2.5372489629
 H          4.6275713472       -2.0631485390       -1.6936762212
 H          6.7158735069       -3.1383102669        1.0284959741
 H          5.8156876539       -2.8644365260       -0.4465632587
 H          5.3708669885       -1.4912200090        2.2445953058
 H          4.4472320481       -2.8526946456        1.6401325217
 O          3.1939042508       -0.5899242679        1.8642454108
 C          2.1408060582        0.2957936244        1.7253910800
 O          1.5597055903        0.5760794979        2.7945507395
 H         -0.5146166468       -0.5307676151        0.9135461211
 C         -0.9436780986       -0.1021206707        0.0157637693
 C         -0.4411108171        1.1036081950       -0.4603750172
 C         -1.0074406316        1.6529110021       -1.6019252481
 C         -2.0287384013        0.9919822496       -2.2642807604
 C         -2.5148815807       -0.2146405249       -1.7976440765
 C         -1.9688834270       -0.7622174075       -0.6425170349
 N         -2.4772876582       -1.9737023154       -0.1426780092
 S         -4.1423239552       -2.1379385820       -0.0679762084
 O         -4.3863411310       -3.0488315591        1.0286229873
 O         -4.6448305977       -2.5553114097       -1.3533158329
 C         -4.7588981957       -0.5084142237        0.3188043905
 C         -4.3349344783        0.0868865946        1.4904886412
 C         -4.7751926757        1.3657792261        1.7896468868
 C         -5.6278300799        2.0244040167        0.9166708705
 C         -6.0496182573        1.4106328885       -0.2522443066
 C         -5.6105445913        0.1323013623       -0.5577963007
 H         -5.9096981921       -0.3802702330       -1.4574408736
 H         -6.7143253543        1.9242301233       -0.9278371987
 H         -5.9648159247        3.0217382641        1.1512206320
 H         -4.4474446055        1.8437546775        2.6989666915
 H         -3.6740272471       -0.4515575559        2.1512847578
 H         -2.0409404807       -2.2770025546        0.7152950665
 H         -3.3000195129       -0.7467726499       -2.3098294848
 H         -2.4506912995        1.4228629014       -3.1591272297
 H         -0.6422473214        2.5921654563       -1.9820122526
 C          0.6821594334        1.7472598397        0.3163578789
 H          0.3213622411        1.9267284759        1.3395703162
 C          1.1619833219        3.0583766647       -0.2677806594
 C          0.4132202361        4.3237960205        0.0199496417
 C          1.7521863047        4.0856666804        0.6491408970
 H          2.5973901071        4.6612096382        0.3025382197
 H          1.7901892107        3.8488169788        1.7028133695
 H          0.3395892501        5.0682967372       -0.7580991488
 H         -0.4609585810        4.2543505016        0.6492218080
 H          1.6175985565        2.9406548433       -1.2436591898
 O          2.2352999179        0.6697809863       -1.8663259170
