  62
        -98.93410090
 C         -2.6178803808       -0.0209946953        0.1635030564
 C         -2.3930114198        1.0663243472        1.0439163426
 C         -1.9061998719        2.3126905387        0.4399741837
 C         -1.7212082552        2.3668996142       -0.8908601830
 C         -1.1205466539        3.5188703152       -1.6447071489
 C          0.4166293689        3.4641801440       -1.5243139203
 C          1.0331384391        4.6189979296       -0.7325899076
 H          2.0669037365        4.3435418145       -0.5133240027
 H          1.0527964649        5.5111256814       -1.3629045330
 C          0.3304184073        4.9911563855        0.5765860423
 H          1.0202188468        5.6243732526        1.1386818551
 H         -0.5477104354        5.6018364471        0.3605376454
 C         -0.0962559541        3.8174217795        1.4682182380
 H          0.1005842020        4.0862719368        2.5084811947
 H          0.5020871042        2.9297057366        1.2521454785
 C         -1.5903896200        3.4525138475        1.3666516793
 H         -1.9417213500        3.1263489900        2.3499969489
 H         -2.1694552206        4.3357120534        1.0834819979
 H          0.8575560334        3.4639579426       -2.5226720600
 H          0.6921038210        2.5127766301       -1.0620014098
 H         -1.5057789647        4.4591725161       -1.2569323488
 H         -1.4218576120        3.4177792562       -2.6877427741
 O         -1.9870488411        1.3191301903       -1.7104992864
 C         -2.3662413111        0.0835068310       -1.2057146760
 O         -2.4534174045       -0.8050756031       -2.0737896734
 O         -2.5703704697        0.9870347580        2.2917427391
 C         -2.9086988299       -1.3770726237        0.7852932585
 C         -1.8493733509       -2.3467392836        0.3184954436
 C         -2.1015334593       -3.6213522032       -0.1663901982
 C         -1.0536079223       -4.4247073311       -0.5877012020
 C          0.2516446508       -3.9726069047       -0.5564567560
 C          0.5130580962       -2.6900033542       -0.0807611297
 C         -0.5302986016       -1.9112302303        0.3825598467
 H         -0.3176763797       -0.9278843782        0.7774369911
 N          1.8162438644       -2.1665881181       -0.1114323553
 S          2.1867683491       -0.6682878137        0.5449909120
 O          2.0140104202       -0.6788637307        1.9829606228
 O          1.4796769826        0.3575634847       -0.1793500527
 C          3.9234052655       -0.5984164425        0.1500443752
 C          4.3008573402       -0.1522455557       -1.1021146606
 C          5.6479906447       -0.1241369853       -1.4262245929
 C          6.5904247724       -0.5422667138       -0.4983937798
 C          6.1971543088       -0.9858303722        0.7552831728
 C          4.8512613963       -1.0161838990        1.0853515246
 H          4.4997082417       -1.3409374745        2.0514632103
 H          6.9320921000       -1.3065227186        1.4758130131
 H          7.6381532268       -0.5191402909       -0.7532123285
 H          5.9566267308        0.2232449707       -2.3989847047
 H          3.5323139681        0.1692632542       -1.7861285473
 H          2.5493451813       -2.8493481107        0.0094797330
 H          1.0609536031       -4.5928591232       -0.9088355870
 H         -1.2613813939       -5.4162955893       -0.9605664854
 H         -3.1152411929       -3.9811149499       -0.2325558770
 H         -2.7512427121       -1.2112542181        1.8658269314
 C         -4.3320316033       -1.8890668274        0.6363030780
 C         -5.4623057767       -0.9534141567        0.3302066761
 C         -5.0321427090       -1.9660152920       -0.6861153815
 H         -5.6809305806       -2.8100012179       -0.8702844232
 H         -4.4910391051       -1.6265431205       -1.5544066368
 H         -6.4022272423       -1.0978941782        0.8417111818
 H         -5.2145566076        0.0832800484        0.1518676263
 H         -4.5505341456       -2.6821639855        1.3453551926
