  62
        -98.94601684
 C         -2.0081576003       -0.2593393341        0.5113797834
 C         -1.6617272841        0.8983744939        1.2521687623
 C         -1.7390460210        2.1766495510        0.5371125800
 C         -2.0687244127        2.1891013982       -0.7667843163
 C         -2.1969117001        3.4093826261       -1.6377994859
 C         -0.8608796382        3.8978437698       -2.2140393934
 C          0.0535153267        4.6078165099       -1.2150799740
 H         -0.5088731975        5.3858329708       -0.6968436883
 H          0.8380978635        5.1000356751       -1.7932859209
 C          0.7115821971        3.6724078222       -0.1912712270
 H          1.7726081915        3.9201224930       -0.1020884340
 H          0.6601446731        2.6441849004       -0.5600755112
 C          0.1097673804        3.7476794956        1.2123416024
 H          0.2711854644        4.7472092255        1.6227395086
 H          0.6371476337        3.0352505546        1.8505417426
 C         -1.3896703155        3.4301924150        1.2832676813
 H         -1.9680029949        4.2689833710        0.8956158349
 H         -1.6564478874        3.2759384646        2.3320206077
 H         -1.0883852909        4.5921205509       -3.0266601650
 H         -0.3322231125        3.0419835388       -2.6423822249
 H         -2.6712915529        4.2159377922       -1.0773526911
 H         -2.8494188842        3.1305886311       -2.4681714565
 O         -2.3511751557        1.0554050608       -1.4571502088
 C         -2.2975273159       -0.1939319709       -0.8536489513
 O         -2.5425925853       -1.1342232774       -1.6328486290
 O         -1.3005084327        0.8656695941        2.4598267105
 C         -1.8914334878       -1.6070933333        1.2071579945
 C         -1.0373851951       -2.5078566700        0.3512076166
 C         -1.4344512894       -3.7393797848       -0.1484088263
 C         -0.6036893404       -4.4376616178       -1.0090727954
 C          0.6127145978       -3.9155820867       -1.4078243382
 C          1.0229106790       -2.6857054886       -0.9023577728
 C          0.2172306611       -2.0223908925        0.0041905001
 H          0.5331382180       -1.0698972858        0.3981423364
 N          2.2435405128       -2.1128310554       -1.2832461658
 S          2.4843407632       -0.4555923929       -1.2737449327
 O          1.2715669970        0.2915778092       -1.5089286888
 O          3.5522783252       -0.2530558418       -2.2311945804
 C          3.1260337678       -0.1551547331        0.3605958752
 C          2.3899267857        0.5458522814        1.2930908793
 C          2.9172273760        0.7378741638        2.5606553321
 C          4.1684210100        0.2298875866        2.8721688776
 C          4.9005576843       -0.4673713103        1.9224283397
 C          4.3764406123       -0.6640131928        0.6556772906
 H          4.9139531430       -1.1917013226       -0.1143393880
 H          5.8747353904       -0.8588362568        2.1670083998
 H          4.5734311166        0.3805204253        3.8603379421
 H          2.3395812370        1.2762267207        3.2956225502
 H          1.4168615835        0.9285002776        1.0249930661
 H          2.7101218566       -2.5639944247       -2.0554299672
 H          1.2355312006       -4.4440726367       -2.1134802377
 H         -0.9234374131       -5.3918204859       -1.4003023699
 H         -2.4040207295       -4.1365357801        0.1035854363
 H         -1.3343904181       -1.3854430836        2.1334261351
 C         -3.2105978805       -2.2286857407        1.6349813786
 C         -4.4076263621       -1.3728352349        1.9198874014
 C         -4.4061734222       -2.2881801452        0.7341529276
 H         -5.0286655027       -3.1704866097        0.7698919891
 H         -4.3117039709       -1.8598255269       -0.2509212836
 H         -5.0300945515       -1.6232934294        2.7657330098
 H         -4.3143724012       -0.3108419955        1.7432062866
 H         -3.0602694473       -3.0766203318        2.2963511379
