  62
        -98.93894677
 C         -1.5067932707       -0.9842940000       -0.3756959913
 C         -2.8193504808       -1.4970015897       -0.2777456016
 C         -3.9144786306       -0.5303214093       -0.4731694210
 C         -3.6125828903        0.7521346408       -0.7413614002
 C         -4.5699603400        1.8959548011       -0.9326969195
 C         -4.7867531998        2.6501125704        0.3899638509
 C         -5.8949017899        2.0852103501        1.2777286707
 H         -6.8641722598        2.3010584106        0.8232606208
 H         -5.8537408897        2.6196718996        2.2296353510
 C         -5.8092509002        0.5817525600        1.5542048498
 H         -6.3883344402        0.3735737296        2.4560926197
 H         -4.7745851403        0.3046712996        1.7641883996
 C         -6.3574087305       -0.2762928992        0.4039922593
 H         -6.9054425704        0.3636591113       -0.2873784003
 H         -7.0801902507       -0.9924323593        0.8005944189
 C         -5.3071419807       -1.0895438990       -0.3680282612
 H         -5.6815824808       -1.2882293884       -1.3778763413
 H         -5.1775109910       -2.0648108694        0.1119936082
 H         -5.0315744495        3.6901183306        0.1650592516
 H         -3.8397269798        2.6472692998        0.9355929709
 H         -5.5114988301        1.5464404416       -1.3456086897
 H         -4.1026647799        2.5760328214       -1.6477818891
 O         -2.3313240502        1.2044081405       -0.8252270900
 C         -1.2485560104        0.3617869501       -0.6352625306
 O         -0.1395258402        0.9168832799       -0.7230351403
 O         -3.0686998811       -2.7081273198       -0.0275523423
 C         -0.3262432909       -1.9204262804       -0.1938842719
 C          0.5581516592       -1.4196699313        0.9200492683
 C         -0.0112688906       -1.1700718918        2.1669454885
 C          0.7556011495       -0.6959410126        3.2124997787
 C          2.1067326796       -0.4511671229        3.0362207888
 C          2.6863472595       -0.7057420623        1.7999936687
 C          1.9149554493       -1.1955421115        0.7539114984
 H          2.3958662992       -1.3981417111       -0.1873793017
 N          4.0560944195       -0.4899405425        1.5980631787
 S          4.6397687196        0.0128598182        0.1175488290
 O          4.6539345292       -1.0892300212       -0.8119574217
 O          5.9350855397        0.5813581477        0.4288765593
 C          3.5486481799        1.2991297388       -0.4590423702
 C          3.0159044698        1.2220544097       -1.7281082902
 C          2.2015564000        2.2476416902       -2.1775317096
 C          1.9309946203        3.3250157197       -1.3510298389
 C          2.4724793604        3.3877320989       -0.0771531589
 C          3.2924837502        2.3682413684        0.3752227904
 H          3.7335463402        2.3947479077        1.3587008204
 H          2.2528483706        4.2254159085        0.5656348016
 H          1.2861850205        4.1163358001       -1.6995975184
 H          1.7708028600        2.1970341309       -3.1648375296
 H          3.2427984195        0.3604604700       -2.3364143707
 H          4.5393295996       -0.0459635131        2.3645104190
 H          2.7072625497       -0.0725408335        3.8490975190
 H          0.2987686196       -0.5071553431        4.1723613889
 H         -1.0689212107       -1.3518828317        2.3018040584
 H         -0.7566084712       -2.8855795604        0.1116473875
 C          0.4026139790       -2.1048192998       -1.5079022221
 C          1.1984727986       -3.3490972898       -1.7606368428
 C         -0.0938155213       -3.1252394691       -2.4858259927
 H         -0.0623244113       -2.8893403185       -3.5389839525
 H         -0.9519874115       -3.7139494390       -2.1960064030
 H          2.1247338086       -3.2665792997       -2.3097243828
 H          1.2193166985       -4.0945822303       -0.9799871233
 H          0.7773545292       -1.1693172896       -1.9094824215
