  62
        -98.94601333
 C         -1.4742946497       -1.0711841408        0.0942434498
 C         -2.3988360997       -0.7082535209        1.1004133498
 C         -3.0301301497        0.6099678690        0.9462407200
 C         -2.6694063198        1.3951013892       -0.0855152600
 C         -3.2649118499        2.7398671291       -0.3851750799
 C         -4.4651640999        2.6160654792       -1.3342413898
 C         -5.4847256798        1.5605229091       -0.9063533899
 H         -5.0249158098        0.5718847091       -0.9730723700
 H         -6.3012731999        1.5845284491       -1.6311897299
 C         -6.0505922298        1.7601476089        0.5065873301
 H         -7.1324006398        1.6143478889        0.4748208401
 H         -5.8723070899        2.7842743889        0.8367014102
 C         -5.5018707197        0.7881200089        1.5528313300
 H         -5.5960776797       -0.2369732811        1.1854160999
 H         -6.1194964397        0.8710032088        2.4512204801
 C         -4.0454822197        1.0161662789        1.9770679900
 H         -3.8523764497        0.3879667388        2.8520089400
 H         -3.9064604398        2.0596144189        2.2683021501
 H         -4.0958837099        2.3515667993       -2.3276232399
 H         -4.9535659600        3.5899334791       -1.4012335097
 H         -2.5019948299        3.3598987292       -0.8589579598
 H         -3.5726064799        3.2118846991        0.5459790102
 O         -1.7438502098        1.0296743293       -1.0084395600
 C         -1.1342374697       -0.2175916307       -0.9564744102
 O         -0.3254087698       -0.4344641106       -1.8745532402
 O         -2.6762151096       -1.4458308210        2.0857101498
 C         -0.7767408296       -2.4167921708        0.1774526196
 C          0.7176380604       -2.2120274707        0.2229905696
 C          1.6165591704       -2.9368507506       -0.5475312305
 C          2.9736823004       -2.6690134805       -0.4817191505
 C          3.4631017704       -1.6777173406        0.3479259196
 C          2.5724463203       -0.9543304707        1.1310186897
 C          1.2166605704       -1.2304945707        1.0709846897
 H          0.5266864303       -0.6607974608        1.6818638697
 N          3.0571932403        0.0740028093        1.9639900097
 S          4.0068280902        1.2362577994        1.2147313098
 O          5.3558834503        0.7415184795        1.0986213597
 O          3.8414066402        2.4325484493        2.0109482699
 C          3.2962219302        1.4529735595       -0.4058847502
 C          3.9867222202        1.0293708896       -1.5222130302
 C          3.3934960301        1.1672939197       -2.7666571402
 C          2.1274914101        1.7202792996       -2.8714241301
 C          1.4477456601        2.1441603095       -1.7404783900
 C          2.0343148702        2.0064676594       -0.4941084501
 H          1.5313216002        2.3252567993        0.4061243900
 H          0.4563159001        2.5592509195       -1.8256020100
 H          1.6591888601        1.8160747197       -3.8379444001
 H          3.9166270501        0.8365929298       -3.6494673502
 H          4.9688646502        0.6040500697       -1.3956292803
 H          2.3325749903        0.5189871192        2.5090193098
 H          4.5146330304       -1.4468435305        0.4018295096
 H          3.6595114104       -3.2364091304       -1.0918631706
 H          1.2547675104       -3.7060088805       -1.2095806305
 H         -1.0956832396       -2.8569990209        1.1341182796
 C         -1.2308481196       -3.3191870507       -0.9505200504
 C         -1.2498729295       -4.8068523307       -0.7698912506
 C         -2.5370053295       -4.0412155208       -0.8175794405
 H         -3.1651269896       -4.1376648707       -1.6904900404
 H         -3.0873343395       -3.9049816009        0.1021583696
 H         -0.9965015195       -5.4322853206       -1.6125248706
 H         -0.9298374095       -5.1997228508        0.1833220394
 H         -0.9750905696       -2.9229718506       -1.9267558704
