  62
        -98.94396522
 C         -1.7219813508       -1.4517743530        0.5031161763
 C         -2.5760475413       -0.9616221317       -0.5155180809
 C         -3.4331220754        0.1747518453       -0.1385398310
 C         -3.3169818562        0.7192462487        1.0855608695
 C         -4.1020118033        1.8987214334        1.5812583605
 C         -3.3820682526        3.2226507125        1.2903945144
 C         -2.8953099350        3.3556708746       -0.1521767711
 H         -2.1258936218        2.6037793390       -0.3389584964
 H         -2.4261777648        4.3375368640       -0.2449303801
 C         -3.9967628334        3.2130006860       -1.2112404682
 H         -3.8736124418        4.0026066626       -1.9553526488
 H         -4.9761245117        3.3522466264       -0.7519279397
 C         -3.9743667483        1.8818367525       -1.9644370577
 H         -2.9682228977        1.6915593723       -2.3459200037
 H         -4.6408730026        1.9676535444       -2.8267342374
 C         -4.4247948200        0.6552718789       -1.1611883146
 H         -4.5520832774       -0.1719459066       -1.8654298386
 H         -5.3901899680        0.8574304092       -0.6922735544
 H         -2.5182453301        3.3015882755        1.9548879452
 H         -4.0626877044        4.0430256805        1.5252511214
 H         -4.2313085276        1.7947872510        2.6600594813
 H         -5.0822020606        1.8965952858        1.1080025796
 O         -2.4267245627        0.2726244411        2.0090298604
 C         -1.6199196027       -0.8192623060        1.7454205802
 O         -0.8588193890       -1.1301175662        2.6849882923
 O         -2.6466233804       -1.4374622202       -1.6774494019
 C         -0.8045614039       -2.6510104696        0.3043232643
 C          0.4580152342       -2.1627204352       -0.3626682124
 C          0.5474151877       -1.9494454785       -1.7335380170
 C          1.7060568502       -1.4313728969       -2.2852709490
 C          2.7902693246       -1.1079088198       -1.4878598453
 C          2.7029377603       -1.3048529906       -0.1159659378
 C          1.5459212312       -1.8351645554        0.4351753370
 H          1.4723226453       -1.9685869032        1.5063748810
 N          3.7839077529       -0.9432351961        0.7097541946
 S          4.4268748027        0.5829994441        0.4697643669
 O          5.3861419412        0.5360205532       -0.6055543505
 O          4.9473432441        0.9892816181        1.7562402457
 C          3.0481442955        1.6129639537       -0.0062131528
 C          3.1061453178        2.3262672626       -1.1860499358
 C          2.0241285266        3.1115839623       -1.5496366613
 C          0.9047273438        3.1644917140       -0.7341416505
 C          0.8610490319        2.4406539605        0.4475535178
 C          1.9418766150        1.6584599158        0.8191823697
 H          1.9252102430        1.0881321189        1.7348733750
 H         -0.0117745132        2.4723455118        1.0813395121
 H          0.0598339193        3.7711464093       -1.0193113901
 H          2.0541045602        3.6757676132       -2.4677185121
 H          3.9928981846        2.2491035984       -1.7939205610
 H          3.6131638134       -1.1091185629        1.6912578204
 H          3.6977172184       -0.7000589368       -1.9033186738
 H          1.7649528768       -1.2713145718       -3.3509666309
 H         -0.3052593330       -2.1641456903       -2.3576422466
 H         -0.5351543401       -2.9877255143        1.3146850659
 C         -1.4566615073       -3.8076777955       -0.4219276944
 C         -0.8181111396       -5.1603416876       -0.3380038967
 C         -2.1087430369       -4.8949417427        0.3758520867
 H         -3.0134304961       -5.3423961756       -0.0074871398
 H         -2.0881215904       -4.8101144049        1.4529574545
 H         -0.8338605030       -5.7928968388       -1.2120704119
 H          0.0792496552       -5.2538568337        0.2553527635
 H         -1.9307528889       -3.5303060965       -1.3530030665
