  62
        -98.94309685
 C         -2.5619845391       -0.1637169852        0.5280497077
 C         -2.1908928128        0.3713678451       -0.7312178982
 C         -1.9641668004        1.8247476944       -0.7703231995
 C         -2.0709031443        2.5431688291        0.3607696031
 C         -1.8375893455        4.0220108599        0.4709127876
 C         -0.3818154174        4.3388430071        0.8367586077
 C          0.6490431907        3.6308275717       -0.0428991659
 H          1.6360115144        3.9810477466        0.2694650067
 H          0.6208023407        2.5557200523        0.1533293398
 C          0.4735594319        3.8698232233       -1.5491064488
 H         -0.1431739980        4.7542195899       -1.7171178699
 H          1.4545837307        4.0686749528       -1.9853457173
 C         -0.1176266342        2.6792497772       -2.3069725905
 H          0.0413546060        2.8407902091       -3.3768730998
 H          0.4176906908        1.7701907912       -2.0228564066
 C         -1.6177788937        2.4346657048       -2.0992788328
 H         -2.1701462947        3.3651939349       -2.2515287397
 H         -1.9434467954        1.7123469145       -2.8536730919
 H         -0.2388541089        5.4193608837        0.7687605613
 H         -0.2103854591        4.0363061401        1.8727442450
 H         -2.0962757468        4.4944130589       -0.4749010760
 H         -2.4912163292        4.4125432904        1.2532920646
 O         -2.3842059611        1.9889585347        1.5614072270
 C         -2.6141593688        0.6284969812        1.6761909036
 O         -2.8596889353        0.2496276972        2.8409799868
 O         -2.0723325483       -0.3144992198       -1.7792460299
 C         -2.7850868077       -1.6545851733        0.7284014660
 C         -1.6492828544       -2.4124117071        0.0851309826
 C         -1.8119494433       -3.4499499026       -0.8224202247
 C         -0.7053577839       -4.0636022057       -1.3846956728
 C          0.5751901439       -3.6477224171       -1.0716170652
 C          0.7475891039       -2.6158369713       -0.1553205306
 C         -0.3594271998       -2.0287639042        0.4311837115
 H         -0.2167374820       -1.2263012117        1.1424008760
 N          2.0319333916       -2.1619397698        0.2009671093
 S          2.1998331546       -0.4976673257        0.4553710717
 O          1.8348199191       -0.1984493622        1.8193829748
 O          1.5069626049        0.2390697943       -0.5739677746
 C          3.9634228875       -0.3143639215        0.2646986719
 C          4.7862008426       -0.7917169930        1.2677632801
 C          6.1590532342       -0.6770455941        1.1189239040
 C          6.6834277307       -0.0891273064       -0.0230432309
 C          5.8451748129        0.3877626194       -1.0192492831
 C          4.4706627537        0.2738715127       -0.8778564786
 H          3.7788702373        0.6337363788       -1.6225854685
 H          6.2548326965        0.8472922747       -1.9042285342
 H          7.7523130358        0.0001034294       -0.1357419169
 H          6.8137052020       -1.0444584104        1.8925801160
 H          4.3319741297       -1.2305555310        2.1408366464
 H          2.7499379951       -2.5087647343       -0.4214242042
 H          1.4344092058       -4.1100666894       -1.5335640915
 H         -0.8442673727       -4.8647755529       -2.0948657315
 H         -2.8024768486       -3.7601239306       -1.1120389551
 H         -2.7058433106       -1.8035299800        1.8190916116
 C         -4.1639864253       -2.1539496358        0.3240624162
 C         -5.3400326043       -1.2254073028        0.2802730340
 C         -4.7933933514       -1.8022713639       -0.9891390237
 H         -5.3737846144       -2.5591851808       -1.4964373950
 H         -4.2351395164       -1.1595821672       -1.6505444687
 H         -6.2902555729       -1.5852153274        0.6456085524
 H         -5.1586282685       -0.1805234686        0.4882618352
 H         -4.3588624719       -3.1516572979        0.7057719009
