  62
        -98.93516360
 C          1.7938885474       -0.0485641136       -0.6384855568
 C          3.0359125461       -0.3048397756       -1.2720227862
 C          4.2294633411        0.2009107668       -0.5871405174
 C          4.0945768255        0.8946599317        0.5574516490
 C          5.2127877736        1.4996446661        1.3625904406
 C          5.8918667836        0.5161832581        2.3257289387
 C          6.7855453916       -0.5326906986        1.6625104713
 H          7.4939683086       -0.0367078239        0.9983091609
 H          7.3629164885       -1.0094925309        2.4571422107
 C          6.0224607879       -1.6166731277        0.8884791321
 H          6.4286774308       -2.5986877082        1.1412731790
 H          4.9745465644       -1.6147479704        1.1974623475
 C          6.0901198359       -1.4759988077       -0.6322591065
 H          7.1213895429       -1.6079327614       -0.9669773553
 H          5.4870316308       -2.2716085685       -1.0768991133
 C          5.5710294554       -0.1343721936       -1.1658358728
 H          5.4541146566       -0.2180037397       -2.2490379589
 H          6.2869752033        0.6585493037       -0.9508793018
 H          6.5060521256        1.1043309155        3.0115858564
 H          5.1198679315        0.0173595413        2.9163786299
 H          5.9583325416        1.9269819923        0.6913508822
 H          4.7700289580        2.3068115291        1.9502962015
 O          2.8835820228        1.1493961703        1.1181352433
 C          1.7046629491        0.6672637548        0.5559599303
 O          0.6856559255        0.9562063328        1.2071352656
 O          3.1395657088       -0.9249992847       -2.3644711898
 C          0.5404110809       -0.5906609698       -1.3154227218
 C         -0.4755476908        0.5121854334       -1.4698058938
 C         -0.2310077028        1.4283630827       -2.4946193097
 C         -1.0620483573        2.5099845028       -2.7054231844
 C         -2.1773420912        2.6998647364       -1.9095005456
 C         -2.4385124964        1.7945520849       -0.8882992256
 C         -1.5909058701        0.7145892187       -0.6708466403
 H         -1.8008360889        0.0838789063        0.1718643533
 N         -3.5886080317        1.9410901216       -0.1103780388
 S         -3.9917563419        1.0570725069        1.2355511804
 O         -5.2350797342        1.6624988738        1.6692827932
 O         -2.9442229668        1.0089388829        2.2266335700
 C         -4.3311561218       -0.5780767920        0.6159220655
 C         -3.9836076453       -1.6683728231        1.3879334573
 C         -4.2856063719       -2.9410462386        0.9298846533
 C         -4.9290364879       -3.1005996599       -0.2871457841
 C         -5.2728859866       -1.9956369377       -1.0510823121
 C         -4.9758432942       -0.7204947108       -0.5971115099
 H         -5.2297894560        0.1581545361       -1.1664132364
 H         -5.7708690117       -2.1233057507       -1.9987348514
 H         -5.1620762199       -4.0916173952       -0.6430296430
 H         -4.0148036134       -3.7996173457        1.5227114305
 H         -3.4737942127       -1.4992792037        2.3231645782
 H         -4.1030610437        2.8012514024       -0.2068139966
 H         -2.8333562479        3.5416586140       -2.0691577720
 H         -0.8433172322        3.2104086759       -3.4973028619
 H          0.6406665850        1.2874782789       -3.1191541715
 H          0.8825375646       -0.8372326472       -2.3342853860
 C          0.1562836394       -1.9295702188       -0.7012983310
 C         -0.5114344217       -2.1318154064        0.6241832642
 C         -1.2382456999       -2.4726941060       -0.6439076697
 H         -1.3850748027       -3.5170389030       -0.8747830072
 H         -2.0469150063       -1.8367174703       -0.9660628212
 H         -0.1549659816       -2.9467995218        1.2388655625
 H         -0.7941662352       -1.2658681259        1.2017123982
 H          0.9347678097       -2.6538872274       -0.9317795540
