  62
        -98.93791329
 C         -2.0575249558       -1.1991480964        0.7966586070
 C         -1.8427862490        0.1858766157        1.0281837917
 C         -2.9709696746        1.0783688539        0.7475451974
 C         -4.1411171447        0.5574837816        0.3366582736
 C         -5.4048939663        1.3260677667        0.0591492290
 C         -5.4810071334        1.9224285218       -1.3527731003
 C         -4.5536326168        3.1117251262       -1.6047822725
 H         -4.7034020791        3.8597056883       -0.8255677384
 H         -4.8587701905        3.5621594460       -2.5514198849
 C         -3.0663324898        2.7421458697       -1.6899740317
 H         -2.6171913305        3.2333641249       -2.5562927664
 H         -2.9675991133        1.6655917370       -1.8483993500
 C         -2.2396582645        3.1384111412       -0.4665203265
 H         -2.2103555465        4.2271059591       -0.3815943610
 H         -1.2186227019        2.7815017743       -0.6256205776
 C         -2.7474156282        2.5558668829        0.8593377228
 H         -3.6639761489        3.0601165490        1.1647639756
 H         -1.9845717215        2.7187433861        1.6245393625
 H         -6.5107402596        2.2500886083       -1.5135119702
 H         -5.2669542284        1.1335193183       -2.0776743158
 H         -5.5178982811        2.1208135961        0.7971856822
 H         -6.2297825367        0.6202264193        0.1787404323
 O         -4.3154181160       -0.7747778848        0.1454297420
 C         -3.2725687888       -1.6854552049        0.3151371765
 O         -3.5865176426       -2.8512847896        0.0158239984
 O         -0.7526264782        0.6460213338        1.4577703587
 C         -0.8473940499       -2.0835969475        1.0443754467
 C          0.1675153538       -1.8473801686       -0.0464543544
 C         -0.2215598629       -1.7883139676       -1.3802613634
 C          0.7079964984       -1.5404531188       -2.3741192652
 C          2.0428588264       -1.3535941298       -2.0596629711
 C          2.4420028837       -1.4102050354       -0.7308121939
 C          1.5048800849       -1.6554201242        0.2655617328
 H          1.8186349867       -1.6781672397        1.3003299823
 N          3.8031872654       -1.2344547820       -0.4096372404
 S          4.5203263263        0.2449832113       -0.7324122828
 O          4.3070241439        0.5765329758       -2.1171631103
 O          5.8934401405        0.1057822312       -0.3057875142
 C          3.6789581756        1.4080673945        0.3253362165
 C          2.4185113670        1.8458162729       -0.0293653227
 C          1.7463763783        2.7052715034        0.8241782968
 C          2.3405685717        3.1061702529        2.0104817774
 C          3.6070823270        2.6574459464        2.3522778541
 C          4.2836987651        1.7955225017        1.5047857173
 H          5.2705146019        1.4226703383        1.7279083050
 H          4.0654391519        2.9726894593        3.2759994993
 H          1.8086472769        3.7709723124        2.6726345567
 H          0.7552303232        3.0436588407        0.5709425870
 H          1.9834006547        1.5118108286       -0.9579127896
 H          4.0280295896       -1.5040699037        0.5381702929
 H          2.7755757447       -1.1435480302       -2.8213951220
 H          0.3914161210       -1.4942634955       -3.4054624752
 H         -1.2644187745       -1.9327772634       -1.6275379319
 H         -0.4024981432       -1.7120767250        1.9825291134
 C         -1.1589491450       -3.5565527724        1.2474004564
 C         -0.9395400192       -4.5934358036        0.1915798651
 C         -0.0444883464       -4.5503820018        1.3917468219
 H         -0.1389084502       -5.3257953056        2.1366202323
 H          0.9653208344       -4.1975893187        1.2448711683
 H         -1.6693982124       -5.3838140113        0.1085810427
 H         -0.5332582871       -4.2778200309       -0.7569057540
 H         -2.0235555045       -3.7021354733        1.8852224699
