  62
        -98.94601924
 C         -1.9396800949       -1.3170022597        0.2067581432
 C         -1.7477164258        0.0828801776        0.1310825225
 C         -2.9280864216        0.9031023240        0.4295150608
 C         -4.0926825364        0.3095511325        0.7484863050
 C         -5.3794973826        1.0111307384        1.0893952067
 C         -6.2011999270        1.4384717544       -0.1347287395
 C         -5.6359569008        2.6240146120       -0.9182607034
 H         -6.4171488912        2.9547281819       -1.6056276526
 H         -5.4355288540        3.4483169836       -0.2331992328
 C         -4.3710327498        2.3041459153       -1.7272908879
 H         -4.2727694613        1.2215721765       -1.8371773757
 H         -4.4673125804        2.7192869397       -2.7331385307
 C         -3.0783886089        2.8593715271       -1.1292821065
 H         -3.1091635180        3.9511754660       -1.1401730436
 H         -2.2446226095        2.5389342343       -1.7593129929
 C         -2.7980652441        2.3910898829        0.3042490304
 H         -1.7682263187        2.6541766224        0.5571714341
 H         -3.4687832257        2.8920791685        1.0017935337
 H         -7.1981468000        1.7084612788        0.2212365900
 H         -6.3084940272        0.5793438533       -0.8010249069
 H         -5.1692858390        1.8826386284        1.7100320699
 H         -5.9737147968        0.3041835664        1.6723565485
 O         -4.2322389378       -1.0415928687        0.8188000012
 C         -3.1679609921       -1.8852176586        0.5430953659
 O         -3.4347027471       -3.1003686058        0.6403083564
 O         -0.6502334766        0.6215063715       -0.1639614883
 C         -0.7827706856       -2.2512465910       -0.0974501511
 C          0.4042491993       -1.9044260199        0.7677487027
 C          0.2215007982       -1.7856565180        2.1438661787
 C          1.2789975990       -1.4659914831        2.9722058305
 C          2.5415248635       -1.2507888839        2.4462716849
 C          2.7378505964       -1.3773154470        1.0771048263
 C          1.6748201819       -1.7153961272        0.2485253002
 H          1.8582697106       -1.8061251529       -0.8084492270
 N          4.0166671402       -1.2006241197        0.5199454665
 S          4.2721559422       -0.1893062600       -0.7879117637
 O          3.4785341962       -0.6202375863       -1.9090978736
 O          5.7064295959       -0.2049270755       -0.9780964237
 C          3.7715608516        1.4342850462       -0.2420235190
 C          4.7553755755        2.3440045511        0.0971146263
 C          4.3852521391        3.5986000682        0.5522906000
 C          3.0410072956        3.9198894672        0.6683513185
 C          2.0678935813        2.9932290882        0.3296436428
 C          2.4290840396        1.7361567214       -0.1308141701
 H          1.6745777497        1.0116476121       -0.3928363260
 H          1.0191140741        3.2284047740        0.4174499977
 H          2.7497459187        4.8961377016        1.0231118691
 H          5.1426254619        4.3197242537        0.8147282380
 H          5.7872164604        2.0518565342       -0.0136681800
 H          4.7434404011       -1.0492589463        1.2051770712
 H          3.3677924481       -0.9929997515        3.0913626914
 H          1.1196203916       -1.3753036751        4.0361474696
 H         -0.7674742477       -1.9438869917        2.5530918247
 H         -1.1237028762       -3.2610264883        0.1749116320
 C         -0.4755811044       -2.2277610391       -1.5806210840
 C          0.1181138215       -3.4301557706       -2.2484902972
 C         -1.3089349538       -3.0550272023       -2.5104683629
 H         -1.5672228036       -2.6450981224       -3.4754927485
 H         -2.0877239496       -3.6611352333       -2.0702523109
 H          0.8451462891       -3.2753203648       -3.0318109728
 H          0.3090801013       -4.2987608642       -1.6363393143
 H         -0.1636929404       -1.2496348871       -1.9307976989
