  62
        -98.93783679
 C          1.8118268525        1.0693204220        0.1656470509
 C          2.2126794266        0.0315247438       -0.7065720074
 C          3.6600566954       -0.0733101551       -0.9712931737
 C          4.4961717751        0.8124301847       -0.4022143294
 C          5.9961903602        0.8497509155       -0.5014979679
 C          6.6374151704        0.0972896124        0.6767447681
 C          6.8220107894       -1.4039957540        0.4585049928
 H          7.6188185333       -1.5649378692       -0.2706943675
 H          7.1549387774       -1.8319823601        1.4068869433
 C          5.5737111653       -2.1572386347       -0.0091113603
 H          5.7127834312       -3.2141503266        0.2267169559
 H          4.7024422309       -1.8141518160        0.5518947671
 C          5.3124856331       -2.0161300886       -1.5161898270
 H          5.1705857202       -3.0070978049       -1.9525026289
 H          6.1968195792       -1.5928932298       -1.9924106301
 C          4.0760524258       -1.1860829593       -1.8940930818
 H          3.2000023122       -1.8406990307       -1.9476454589
 H          4.2169772419       -0.7730612003       -2.8986953542
 H          6.0166699585        0.2678063566        1.5600460911
 H          7.6183584667        0.5323237574        0.8782929008
 H          6.3296029092        0.4478302621       -1.4535218236
 H          6.2857789808        1.9009257851       -0.4415691395
 O          4.0636414746        1.8064740825        0.4217434537
 C          2.7252017096        1.9572353882        0.7325153409
 O          2.4772880379        2.8985925557        1.5127429496
 O          1.4052807458       -0.7780391069       -1.2351889577
 C          0.3433190886        1.2551370664        0.5003235758
 C         -0.2444692558       -0.0263187032        1.0382270367
 C          0.4608919773       -0.7439979773        2.0007534508
 C         -0.0408697496       -1.9262097593        2.5082236435
 C         -1.2610437503       -2.4137977415        2.0749147939
 C         -1.9851322836       -1.6940842031        1.1318344915
 C         -1.4802679036       -0.5025029916        0.6279205601
 H         -2.0483964145        0.0309328619       -0.1151205486
 N         -3.2475733560       -2.1396548368        0.7288125533
 S         -4.0086015546       -1.6492572844       -0.6678243206
 O         -5.1312115355       -2.5563126581       -0.7884743972
 O         -3.1201532194       -1.5982252201       -1.8046495740
 C         -4.6239650614       -0.0200960096       -0.2916201568
 C         -4.7313348763        0.8989606918       -1.3164933452
 C         -5.2539279155        2.1535994644       -1.0437825388
 C         -5.6570060256        2.4671852546        0.2447714085
 C         -5.5439699411        1.5329774327        1.2628749074
 C         -5.0275445394        0.2751320079        0.9954051773
 H         -4.9264284425       -0.4714758507        1.7650830318
 H         -5.8567231954        1.7805788445        2.2645393456
 H         -6.0598761903        3.4451799805        0.4555270688
 H         -5.3428405758        2.8806612694       -1.8353909522
 H         -4.3945885655        0.6169858312       -2.3018713486
 H         -3.5101195314       -3.0670327353        1.0241935900
 H         -1.6494509815       -3.3432221165        2.4620877060
 H          0.5245452569       -2.4780189502        3.2442113315
 H          1.4182669648       -0.3672601365        2.3351902436
 H          0.3083577006        2.0107120947        1.2993939959
 C         -0.3957928656        1.7939903512       -0.7075467882
 C         -1.5757214554        2.7004438063       -0.5301995589
 C         -0.2766521938        3.2511930498       -1.0346274494
 H         -0.2048599085        3.5426943868       -2.0717120943
 H          0.3183889098        3.8583572105       -0.3678425682
 H         -2.3996939071        2.6129038113       -1.2220658364
 H         -1.8725632529        2.9439972846        0.4786004708
 H         -0.4076214632        1.0926149221       -1.5352241655
