  62
        -98.94008347
 C         -1.3136052433       -1.4750198239        0.4503015524
 C         -1.7273945263       -0.6773717708       -0.6408955633
 C         -2.5248360621        0.5263839456       -0.3217074910
 C         -2.7387010475        0.8425075445        0.9687517329
 C         -3.5060677423        2.0058518400        1.5431227566
 C         -5.0270760831        1.8344151596        1.4329462994
 C         -5.5172955336        1.4062627232        0.0532445200
 H         -6.6005472910        1.2725974308        0.1137677328
 H         -5.0847698967        0.4355135241       -0.1935423358
 C         -5.2288561743        2.3960746222       -1.0739469418
 H         -5.6367896063        3.3731536174       -0.8067039813
 H         -5.7687546846        2.0430246376       -1.9561282439
 C         -3.7556706744        2.5636125865       -1.4616528028
 H         -3.2427388756        3.2498210222       -0.7925120795
 H         -3.7329515971        3.0237569667       -2.4534264272
 C         -2.9812544628        1.2539960463       -1.5624547402
 H         -2.0702572671        1.4181953246       -2.1478863843
 H         -3.5666032506        0.5342342081       -2.1461712900
 H         -5.4989158427        2.7777555616        1.7143064655
 H         -5.3388985110        1.0740258028        2.1533750333
 H         -3.2385749926        2.0620307736        2.6010306574
 H         -3.1964778732        2.9354039408        1.0739884800
 O         -2.2560962408        0.0764373294        1.9915720281
 C         -1.5500485554       -1.0867582406        1.7685276663
 O         -1.1778919237       -1.6725257382        2.8076698046
 H          1.2754082855       -1.4344475457        1.6840544234
 C          1.6561405025       -1.5882897115        0.6818090313
 C          0.8795885122       -2.2939733962       -0.2303764159
 C          1.3702927751       -2.4824218242       -1.5144623926
 C          2.6032727311       -1.9627827484       -1.8739957945
 C          3.3688756691       -1.2527913491       -0.9674154548
 C          2.8888485589       -1.0696591210        0.3237013137
 N          3.6519136248       -0.3330671617        1.2533918896
 S          4.0920706577        1.2075940851        0.7656829320
 O          5.2513734845        1.1237203368       -0.0863053523
 O          4.2591785490        1.9664298741        1.9851517081
 C          2.7018656452        1.8253856708       -0.1676238532
 C          2.8451183864        2.1044066862       -1.5110453625
 C          1.7520838117        2.5809807682       -2.2167876897
 C          0.5401980528        2.7658305552       -1.5707053171
 C          0.4087826883        2.4706678394       -0.2226115383
 C          1.4980981197        1.9944897835        0.4874667006
 H          1.4253661754        1.7637688512        1.5391346390
 H         -0.5387383874        2.5994729575        0.2762423805
 H         -0.3088677799        3.1439249395       -2.1180036181
 H          1.8476949092        2.8056996733       -3.2667571438
 H          3.8062991886        1.9485972592       -1.9729073463
 H          3.2313385478       -0.3001378946        2.1713349527
 H          4.3251156905       -0.8331331710       -1.2349973244
 H          2.9704062428       -2.1086374492       -2.8782708150
 H          0.7802281302       -3.0182841537       -2.2387935196
 C         -0.4889314112       -2.7343131495        0.2295519411
 H         -0.3793677933       -3.2001337541        1.2188942442
 C         -1.1743856561       -3.7126509430       -0.6974839840
 C         -0.7376894726       -5.1458528532       -0.7058450423
 C         -2.0622639670       -4.7691858108       -0.1149511732
 H         -2.9614401488       -5.0383194419       -0.6485672123
 H         -2.1696220812       -4.7964393215        0.9599602568
 H          0.0559184530       -5.4295917011       -0.0310630041
 H         -0.7273678688       -5.6774162157       -1.6450207605
 H         -1.4820490001       -3.2670626258       -1.6348593278
 O         -1.4601218613       -0.9450067821       -1.8398829292
