  62
        -98.94439649
 C         -1.9487845768       -0.8852827244        0.0717648997
 C         -2.3932445049        0.4531445149        0.1951199493
 C         -3.8081704271        0.6209729447        0.5527990739
 C         -4.5799095029       -0.4604538161        0.7645215482
 C         -6.0334413349       -0.4494819499        1.1535493927
 C         -6.9956619834       -0.2964303156       -0.0324225296
 C         -7.0385660349        1.0972632386       -0.6603135733
 H         -7.9029839478        1.1218949770       -1.3268598213
 H         -7.2075262324        1.8409181834        0.1190890742
 C         -5.7851484368        1.4685267926       -1.4651175455
 H         -5.2175807428        0.5637758854       -1.6949114818
 H         -6.0820741399        1.9102571709       -2.4190734176
 C         -4.8598946819        2.4688100525       -0.7719014052
 H         -5.3744449260        3.4254509119       -0.6563881934
 H         -3.9885832742        2.6310207142       -1.4118148054
 C         -4.3574089702        2.0145734532        0.6047928211
 H         -3.5452636856        2.6791758382        0.9101207997
 H         -5.1598626581        2.0817735421        1.3391454880
 H         -6.7294864287       -1.0314834348       -0.7954342761
 H         -7.9978103876       -0.5395836592        0.3280436521
 H         -6.2329207425       -1.4084084636        1.6366025306
 H         -6.2137699944        0.3475952435        1.8753341693
 O         -4.1044229469       -1.7304779330        0.6648454643
 C         -2.7899300913       -1.9741155401        0.3016119181
 O         -2.4923725272       -3.1837005716        0.2281760054
 H          1.5183358411        0.6804925982       -0.7278572438
 C          1.4019224897        0.3773361310        0.2983323131
 C          0.4291135383       -0.5387774333        0.6630137687
 C          0.3032543086       -0.8802129261        2.0080919905
 C          1.1184134232       -0.3052195069        2.9624235342
 C          2.0842833898        0.6160975292        2.5952533428
 C          2.2214582922        0.9613247371        1.2566833541
 N          3.1760525169        1.9127154967        0.8659211726
 S          4.1206213884        1.6968202186       -0.4935220421
 O          5.1718742569        2.6808303770       -0.3591586039
 O          3.3192335142        1.7777374728       -1.6871429738
 C          4.8013078013        0.0589417286       -0.3089234762
 C          4.1859889679       -1.0126476108       -0.9230582595
 C          4.6964446243       -2.2847422145       -0.7164985937
 C          5.8052552795       -2.4625005676        0.0961283000
 C          6.4141743630       -1.3746268522        0.7036797950
 C          5.9066771063       -0.1013773051        0.5042481504
 H          6.3568528655        0.7719445116        0.9476656711
 H          7.2794331752       -1.5155940304        1.3311663452
 H          6.1983579034       -3.4545147442        0.2535397750
 H          4.2254150088       -3.1311211723       -1.1905804992
 H          3.3292385719       -0.8363117171       -1.5518449860
 H          3.7206441649        2.2947919982        1.6249077583
 H          2.7158729934        1.0752535992        3.3405448107
 H          1.0034593633       -0.5751464897        4.0013895248
 H         -0.4559275130       -1.5962757494        2.2931698530
 C         -0.5124722132       -1.1774045664       -0.3280854716
 H         -0.3961759982       -2.2686111623       -0.2577232589
 C         -0.2765712676       -0.7557151882       -1.7627980665
 C          0.7458211093       -1.4652559480       -2.5967139738
 C         -0.7143649962       -1.6683956295       -2.8671304371
 H         -1.1423021898       -1.2324148488       -3.7574411613
 H         -1.1615672736       -2.6102341511       -2.5833184369
 H          1.2853072263       -2.2792204544       -2.1359751535
 H          1.3247187109       -0.8884987281       -3.3032672933
 H         -0.4124169898        0.3087782664       -1.9178933089
 O         -1.6542014850        1.4563742929        0.0191530417
