  62
        -98.94546529
 C         -2.6534481485       -1.0444901166        0.2641727869
 C         -2.5143568300       -0.2842964460       -0.9227953894
 C         -3.1036322869        1.0622664184       -0.8920587657
 C         -3.7356533702        1.4819216761        0.2190176141
 C         -4.3253157436        2.8491673797        0.4069974868
 C         -3.3051481324        3.8093302997        1.0348597795
 C         -1.9395624819        3.7986302454        0.3464267114
 H         -1.3107196512        4.5337688939        0.8541224131
 H         -1.4658454821        2.8242859859        0.4934732338
 C         -1.9820915469        4.1134249394       -1.1553626667
 H         -1.1798758144        4.8175361211       -1.3858671125
 H         -2.9258363869        4.6001476357       -1.4052715933
 C         -1.7800980179        2.8992238216       -2.0642719366
 H         -0.8795544435        2.3580922468       -1.7578416110
 H         -1.6087796959        3.2625045558       -3.0812817466
 C         -2.9510322119        1.9092612278       -2.1233951037
 H         -3.8760511588        2.4470029164       -2.3413851654
 H         -2.7539650099        1.2126535592       -2.9434015474
 H         -3.1622300456        3.5285621976        2.0810125854
 H         -3.7178333976        4.8192826428        1.0075254548
 H         -5.1870920044        2.7645601738        1.0710822677
 H         -4.6557620712        3.2323474191       -0.5561720275
 O         -3.8626916440        0.7163031116        1.3335854346
 C         -3.3025970205       -0.5502899244        1.3940775614
 O         -3.4452359302       -1.1244802671        2.4935471983
 O         -1.9285151539       -0.7053216247       -1.9533920660
 C         -2.0217436658       -2.4230404291        0.3541784365
 C         -0.5345394376       -2.2951230312        0.1259145357
 C          0.1817095468       -3.0784333334       -0.7683257920
 C          1.5379432346       -2.8681403478       -0.9525046081
 C          2.2076347200       -1.8829434709       -0.2506908896
 C          1.5026741884       -1.1019030697        0.6561242953
 C          0.1477918791       -1.3188672405        0.8423746555
 H         -0.4017045357       -0.7032041380        1.5459918871
 N          2.1775425589       -0.0941360414        1.3776010217
 S          2.8580887545        1.1384120019        0.4522664639
 O          2.9439802721        2.2766290943        1.3421880514
 O          2.1318825599        1.3394767565       -0.7802041292
 C          4.4990419930        0.5386554321        0.1131778048
 C          5.3229734719        0.2635944612        1.1871871595
 C          6.6019888231       -0.2107931229        0.9442905222
 C          7.0331380362       -0.3987346198       -0.3607244474
 C          6.1948788789       -0.1139752409       -1.4278365123
 C          4.9133837115        0.3598046041       -1.1918483472
 H          4.2229258991        0.5875213840       -1.9883296589
 H          6.5318534063       -0.2604041254       -2.4414501648
 H          8.0285907511       -0.7695725804       -0.5472739155
 H          7.2568236523       -0.4333527141        1.7712379283
 H          4.9482306437        0.4272354879        2.1837458633
 H          1.6088317154        0.3139121710        2.1068077434
 H          3.2614217411       -1.7115101974       -0.3985115471
 H          2.0802561575       -3.4784069653       -1.6583840511
 H         -0.3244131128       -3.8439139130       -1.3329761302
 H         -2.1825891758       -2.7658808531        1.3868614654
 C         -2.7053120314       -3.3859336653       -0.5927853147
 C         -2.7298288087       -4.8525428531       -0.2867125719
 C         -3.9819560619       -4.0393490381       -0.1597125486
 H         -4.7648100670       -4.1756093779       -0.8905263091
 H         -4.3460807141       -3.8066013920        0.8306558581
 H         -2.6564910567       -5.5517809292       -1.1058024392
 H         -2.2466015272       -5.1818671900        0.6206494720
 H         -2.6276389488       -3.0763400674       -1.6284326381
