  62
        -98.93949620
 C         -2.6403967674       -1.2158944137        0.2489896410
 C         -2.5173885334       -0.1718538746       -0.7013614175
 C         -3.7036856703        0.6844270791       -0.8679821475
 C         -4.8087248713        0.4393086158       -0.1424542958
 C         -6.0608210787        1.2657304480       -0.1759043352
 C         -6.0198134535        2.3762110656        0.8833556603
 C         -4.7256125381        3.1900094000        0.8763112688
 H         -4.8233726402        3.9618126512        1.6428846247
 H         -3.8960755012        2.5446772849        1.1747968973
 C         -4.3954373279        3.8466806745       -0.4713605711
 H         -5.2903189286        3.8851846844       -1.0936250359
 H         -4.0816987842        4.8769415919       -0.2907968022
 C         -3.2664366611        3.1674746846       -1.2489177600
 H         -2.9709208454        3.8300105914       -2.0667611041
 H         -2.3964057189        3.0417026570       -0.5992734917
 C         -3.6068825684        1.8047021208       -1.8650353314
 H         -4.5264236943        1.8829475720       -2.4486993614
 H         -2.7909546092        1.5341444392       -2.5416759970
 H         -6.1306852387        1.9183151100        1.8690796536
 H         -6.8705264849        3.0403138190        0.7200459034
 H         -6.1783765983        1.6985725626       -1.1673958449
 H         -6.9104636142        0.6120223434        0.0286287526
 O         -4.8909867064       -0.5742269521        0.7572605956
 C         -3.8089208327       -1.4058527256        0.9919176579
 O         -4.0071405138       -2.2637332045        1.8754601240
 H          0.7897174605       -2.0972148591       -0.9973042613
 C          0.8549905338       -1.4532126537       -0.1340184590
 C         -0.2153408382       -1.3623173075        0.7404353561
 C         -0.1119750766       -0.5021721520        1.8303125295
 C          1.0287117479        0.2505837982        2.0319265900
 C          2.0919441210        0.1640166844        1.1501228932
 C          2.0001278742       -0.6909976759        0.0611831693
 N          3.0668860441       -0.7684720129       -0.8481232572
 S          4.6244002021       -0.9621331186       -0.2634947427
 O          5.3581318940       -1.5890519994       -1.3415252223
 O          4.6308982708       -1.6551982448        1.0042317555
 C          5.2198314225        0.7027074390       -0.0527207819
 C          5.7288235452        1.1031673988        1.1669999410
 C          6.2011565261        2.3993468566        1.3033826240
 C          6.1575419663        3.2668978157        0.2228790807
 C          5.6447697237        2.8486021250       -0.9960996327
 C          5.1719541183        1.5540209260       -1.1391399894
 H          4.7687470641        1.1906379934       -2.0696437454
 H          5.6116524989        3.5263374501       -1.8339848089
 H          6.5251846773        4.2751105513        0.3311318302
 H          6.6000571900        2.7265380584        2.2501137713
 H          5.7388726971        0.3954204304        1.9806864710
 H          2.8902582839       -1.3677795002       -1.6407172085
 H          2.9834568296        0.7515990264        1.2974210441
 H          1.0910956719        0.9146518971        2.8809013494
 H         -0.9459274142       -0.4283881593        2.5158804405
 C         -1.4871351768       -2.1545529122        0.5633707060
 H         -1.7423125083       -2.5977723316        1.5401836098
 C         -1.3415947693       -3.3167631755       -0.4077094775
 C         -2.5468065432       -3.9317885332       -1.0524396397
 C         -1.5574490300       -3.1741895869       -1.8833338680
 H         -0.9166819411       -3.7339189326       -2.5497628442
 H         -1.8345200537       -2.2021453541       -2.2588406211
 H         -2.5862304608       -5.0065496136       -1.1471915002
 H         -3.5057553434       -3.4757628554       -0.8534105206
 H         -0.5617679600       -4.0051558696       -0.0940293421
 O         -1.4838963149        0.0462396779       -1.3836140839
