  62
        -98.94532908
 C         -2.6386517104       -1.0900733800        0.3010614898
 C         -2.5907382604       -0.3282028294       -0.8918258598
 C         -3.2449250301        0.9874206707       -0.8370427290
 C         -3.8355130700        1.3848212202        0.3046356313
 C         -4.4840090797        2.7217094302        0.5157747020
 C         -3.4822575595        3.7416486397        1.0753151625
 C         -2.1602764795        3.7962318999        0.3085159924
 H         -1.5440503493        4.5696140895        0.7729598228
 H         -1.6275531897        2.8499438497        0.4355836919
 C         -2.3075101696        4.0922848507       -1.1904834774
 H         -1.5602590895        4.8366097607       -1.4734387971
 H         -3.2893753195        4.5243849310       -1.3881010771
 C         -2.0933731599        2.8809297211       -2.1002846181
 H         -1.1486516599        2.3921471108       -1.8437125184
 H         -2.0025111999        3.2414618217       -3.1285274279
 C         -3.2088292101        1.8275884113       -2.0820893286
 H         -4.1732573300        2.3109930816       -2.2509308882
 H         -3.0208026603        1.1332414017       -2.9061725689
 H         -3.9498043493        4.7277494498        1.0639253030
 H         -3.2642558294        3.4807732491        2.1136106323
 H         -4.8893761597        3.0761676108       -0.4296529078
 H         -5.3004156497        2.5993576100        1.2294383620
 O         -3.8621779900        0.6238821296        1.4291294009
 C         -3.2484623802       -0.6184867805        1.4623477201
 O         -3.3091965002       -1.1931977811        2.5690209498
 H         -0.3440242902       -0.6929990511        1.5148556999
 C          0.1973045096       -1.2807490408        0.7818916595
 C         -0.4820548006       -2.2662053703        0.0753142691
 C          0.2225644492       -3.0139135699       -0.8577318814
 C          1.5648500092       -2.7618623100       -1.0864570314
 C          2.2321782794       -1.7707745205       -0.3908771709
 C          1.5387168696       -1.0231121109        0.5522840695
 N          2.2102807399       -0.0144054714        1.2716432600
 S          2.9441760200        1.2001068589        0.3658075706
 O          2.9900352803        2.3500857685        1.2432626112
 O          2.2845734399        1.3859685697       -0.9056583892
 C          4.5986118599        0.5904701488        0.1205259002
 C          5.0812928197        0.3977510694       -1.1588980300
 C          6.3716259096       -0.0824629108       -1.3222168103
 C          7.1514121497       -0.3589278115       -0.2095700406
 C          6.6525747098       -0.1563028421        1.0688027296
 C          5.3640742699        0.3241142880        1.2390175900
 H          4.9388337400        0.4999794776        2.2129909501
 H          7.2622263099       -0.3716137927        1.9315083294
 H          8.1542807396       -0.7339280616       -0.3395768808
 H          6.7612488595       -0.2398664703       -2.3151301805
 H          4.4356202397        0.6211610399       -1.9933583398
 H          1.6407412500        0.4003049383        1.9960166603
 H          3.2747920694       -1.5670712906       -0.5725824609
 H          2.0981802290       -3.3447840897       -1.8217070517
 H         -0.2818479510       -3.7844060995       -1.4169720218
 C         -1.9542907906       -2.4450220602        0.3596154391
 H         -2.0620124406       -2.7963158607        1.3963301789
 C         -2.6411136209       -3.4285690396       -0.5634775814
 C         -2.5940709111       -4.8967450497       -0.2678397422
 C         -3.8704987810       -4.1348606496       -0.0796195617
 H         -4.6789684611       -4.2979235691       -0.7762658617
 H         -4.1993670809       -3.9231131601        0.9276527785
 H         -2.0582763711       -5.2119008103        0.6146664876
 H         -2.5293169813       -5.5874533493       -1.0948521325
 H         -2.6218241409       -3.1105402690       -1.5992924112
 O         -2.0323720705       -0.7234132189       -1.9477291100
