  62
        -98.93875355
 C          1.9538366091        1.5484478976       -0.0361303108
 C          1.7460062255        0.2652667669       -0.5957020728
 C          2.9248343125       -0.6182766175       -0.6397807048
 C          4.1075784209       -0.1666911315       -0.1884542880
 C          5.4390827445       -0.8752420345       -0.1858869484
 C          5.4560636663       -2.3428560065        0.2652942187
 C          4.4027632296       -2.7113656381        1.3202628183
 H          4.8942174374       -3.2317302575        2.1446454145
 H          3.9498519092       -1.8073187689        1.7309444349
 C          3.3075124854       -3.6292890419        0.7726097551
 H          2.8253185503       -4.1374001585        1.6112663034
 H          3.7759046625       -4.3968887569        0.1524922568
 C          2.2058142494       -2.9391688548       -0.0318868785
 H          1.5787971337       -3.7193790837       -0.4686318135
 H          1.5701798629       -2.3496119390        0.6343538305
 C          2.6844919370       -2.0074186572       -1.1566763638
 H          3.5628388465       -2.4092911378       -1.6561640580
 H          1.8741281641       -1.9183514905       -1.8849687086
 H          6.4532923890       -2.5396243143        0.6625637617
 H          5.3308155817       -2.9914001079       -0.6007178704
 H          5.8648440163       -0.8045267918       -1.1909867075
 H          6.0753579233       -0.2815698668        0.4748488175
 O          4.2627369275        1.0860045441        0.3282311558
 C          3.1979724956        1.9640680654        0.4321563971
 O          3.4818887018        3.0629245984        0.9519034202
 H         -1.8594088707        2.2822702526       -0.6704494400
 C         -1.6403045920        1.8157430078        0.2771382509
 C         -0.3545350314        1.8586925829        0.7906951820
 C         -0.1103284536        1.2499739274        2.0191884636
 C         -1.1210169829        0.6029800335        2.7032109454
 C         -2.4010808783        0.5489684456        2.1790595570
 C         -2.6568930593        1.1595222890        0.9598595126
 N         -3.9554837222        1.1060160841        0.4162753992
 S         -4.6390474717       -0.4120264718        0.2202965106
 O         -5.7126492561       -0.2196991852       -0.7290250835
 O         -5.0200541536       -0.9315885852        1.5095880534
 C         -3.3480322232       -1.4118013805       -0.4927464261
 C         -2.6126115313       -2.2577776428        0.3109702720
 C         -1.5766308599       -2.9827409145       -0.2543438311
 C         -1.2924930122       -2.8451402257       -1.6030262802
 C         -2.0391588157       -1.9894675877       -2.3965792456
 C         -3.0751483016       -1.2612521249       -1.8375054196
 H         -3.6833680900       -0.5909733251       -2.4241259324
 H         -1.8104474813       -1.8819759174       -3.4447998582
 H         -0.4820824514       -3.4065997786       -2.0404472617
 H         -0.9903242609       -3.6465747493        0.3607575862
 H         -2.8656253557       -2.3381858274        1.3555502378
 H         -4.0495120665        1.6331213941       -0.4405402742
 H         -3.2004890934        0.0392687371        2.6919773449
 H         -0.9120982340        0.1330317459        3.6526485149
 H          0.8917661467        1.2833564964        2.4261316729
 C          0.7921329003        2.5199310608        0.0667972687
 H          1.1483100171        3.3617689636        0.6780351187
 C          0.4305103257        3.0368364109       -1.3103754309
 C         -0.2099499774        4.3824562315       -1.4694752294
 C          1.2155920891        4.1765423475       -1.8834524048
 H          1.4510623541        4.1630447954       -2.9371028950
 H          1.9970276243        4.5982660215       -1.2680812667
 H         -0.9514363885        4.5152780332       -2.2432090989
 H         -0.3998815453        4.9553631495       -0.5743808110
 H          0.1362636969        2.2433801583       -1.9882758894
 O          0.6378563143       -0.1221265055       -1.0454078235
