  62
        -98.93606083
 C         -0.8815712660       -1.0995478709        0.9858930101
 C         -1.4937383952       -0.9304665342       -0.2809465462
 C         -2.2523893576        0.3161364816       -0.4685428652
 C         -2.2645009282        1.2466726938        0.5003746839
 C         -2.9053912102        2.6087533345        0.4408336210
 C         -4.4411247759        2.6426755170        0.3235293836
 C         -4.9638764351        2.7347247916       -1.1152353560
 H         -5.8146988582        3.4187854041       -1.1372591150
 H         -4.1888533494        3.1778884001       -1.7422151390
 C         -5.4329115444        1.4170451700       -1.7390831312
 H         -5.5376737086        1.5751309260       -2.8146346019
 H         -6.4206690385        1.1673505628       -1.3450010427
 C         -4.5264809128        0.2088099057       -1.5029307103
 H         -4.8615120992       -0.6013197862       -2.1537167720
 H         -4.6496320941       -0.1473451030       -0.4772552574
 C         -3.0270432184        0.4716368154       -1.7437078641
 H         -2.6217655055       -0.2627738725       -2.4431810551
 H         -2.8668687992        1.4623881665       -2.1677050923
 H         -4.7784719862        3.5280875647        0.8647482623
 H         -4.8637002926        1.7742510905        0.8280620628
 H         -2.4645470474        3.1608640972       -0.3934699437
 H         -2.6092282694        3.1099010735        1.3650756115
 O         -1.6137693595        1.0716869688        1.6842374286
 C         -0.9109465674       -0.0926981842        1.9523545184
 O         -0.3518528333       -0.1029885754        3.0672521295
 O         -1.4185472746       -1.7666631579       -1.2174812455
 C         -0.0051786326       -2.3038819250        1.2943046613
 C          0.9665052347       -2.4820773106        0.1530814322
 C          1.1513840453       -3.6625158438       -0.5520651197
 C          2.0350777913       -3.7036067945       -1.6176050802
 C          2.7295874669       -2.5749814958       -2.0122592915
 C          2.5547919423       -1.3892414206       -1.3068116301
 C          1.7056165375       -1.3644524344       -0.2155166222
 H          1.5721390513       -0.4439747514        0.3341526231
 N          3.2352889884       -0.2148181918       -1.6644491797
 S          2.4640117495        1.2640530124       -1.5104200271
 O          1.0451564348        1.1753902766       -1.7631353223
 O          3.2098966093        2.1428982036       -2.3886255810
 C          2.7695200594        1.7487916328        0.1746028687
 C          1.7140663571        2.1594229536        0.9637718301
 C          1.9596756387        2.5371527114        2.2738539863
 C          3.2550131086        2.5043693003        2.7665859321
 C          4.3070989406        2.1000197106        1.9582980807
 C          4.0659610477        1.7173550589        0.6486722521
 H          4.8552879924        1.3952838410       -0.0096547895
 H          5.3122670680        2.0777182212        2.3474126238
 H          3.4417081623        2.7940897456        3.7885689311
 H          1.1361677469        2.8356220384        2.9028415777
 H          0.7183990648        2.1565452936        0.5458520293
 H          3.7697840359       -0.2734595292       -2.5191127763
 H          3.3923489795       -2.6040097477       -2.8638211767
 H          2.1670994414       -4.6248125066       -2.1648785026
 H          0.5846926990       -4.5407945009       -0.2898572757
 H          0.5756509075       -2.0049894097        2.1831076287
 C         -0.7531497483       -3.5712703002        1.6754583199
 C         -2.1314049291       -3.5044644813        2.2614303161
 C         -1.9249658883       -4.0846022394        0.8961335083
 H         -2.0286644551       -5.1532822145        0.7755029853
 H         -2.2407928093       -3.5143046622        0.0376381566
 H         -2.3768149358       -4.1701073609        3.0754051025
 H         -2.5930419995       -2.5303790149        2.3381249261
 H         -0.0894530949       -4.3176383468        2.1012663719
