  62
        -98.94479856
 C         -2.0060267583       -1.3626569879        0.3074943025
 C         -2.6559416142       -0.7755783698       -0.8053088534
 C         -3.8223174919        0.0596777046       -0.4911020558
 C         -4.2111376642        0.2165450108        0.7872660946
 C         -5.3939880458        1.0166233307        1.2615593890
 C         -5.1081562494        2.5155737316        1.4269051406
 C         -4.9544797631        3.2967655701        0.1211920499
 H         -5.8137894858        3.1016045381       -0.5210086142
 H         -4.9742376330        4.3577534644        0.3781990542
 C         -3.6583128759        2.9995791195       -0.6462901534
 H         -2.9427427470        2.5117536899        0.0200870368
 H         -3.2017414302        3.9379488816       -0.9694661303
 C         -3.8429502619        2.1330364674       -1.8922590543
 H         -2.8584614386        1.9528275292       -2.3322566296
 H         -4.4466619448        2.6715618321       -2.6261098866
 C         -4.4983934696        0.7720707053       -1.6230745756
 H         -5.5605528806        0.8997245811       -1.4155214946
 H         -4.3862736578        0.1556288836       -2.5182411400
 H         -5.9412292562        2.9465222871        1.9869558566
 H         -4.2055023902        2.6351786462        2.0308554169
 H         -6.2291607921        0.8780405045        0.5746109780
 H         -5.6737084399        0.6105226541        2.2360658387
 O         -3.5582499854       -0.3664042564        1.8283440878
 C         -2.4300166891       -1.1439291341        1.6174159080
 O         -1.8994514847       -1.5743860929        2.6626079116
 O         -2.2869608779       -0.9391429484       -1.9963643797
 C         -0.7791929450       -2.2315202386        0.0946483430
 C          0.3038598843       -1.4267410199       -0.5830406987
 C          1.0086116187       -1.8678263611       -1.6945194750
 C          1.9810020709       -1.0676990851       -2.2709713256
 C          2.2802498619        0.1760553890       -1.7479791916
 C          1.5987114306        0.6160604904       -0.6193970451
 C          0.6257019831       -0.1861518892       -0.0446297313
 H          0.0923250702        0.1596425061        0.8329197513
 N          1.9146917488        1.8669689781       -0.0630121661
 S          3.5332251086        2.2637794149        0.0967063742
 O          3.5918423344        3.1674399084        1.2243694685
 O          4.0294813354        2.7860268447       -1.1521308683
 C          4.3597812453        0.7286701311        0.4772685434
 C          3.9757050292        0.0467598528        1.6149594774
 C          4.5823551308       -1.1637063509        1.9076837606
 C          5.5582555515       -1.6691123426        1.0620622334
 C          5.9375475708       -0.9693158828       -0.0726069348
 C          5.3324229829        0.2409377938       -0.3715031159
 H          5.5940893462        0.8161077622       -1.2446621367
 H          6.6983053325       -1.3635780175       -0.7267385372
 H          6.0252374506       -2.6138958331        1.2912476169
 H          4.2879882405       -1.7085286117        2.7904593707
 H          3.2163355865        0.4672351172        2.2552023835
 H          1.3968999473        2.0885625453        0.7741519701
 H          3.0200078544        0.8181754769       -2.1977465437
 H          2.5104697285       -1.4167292455       -3.1440882861
 H          0.7888967723       -2.8331436350       -2.1190656030
 H         -0.4220640873       -2.5038630217        1.0985959738
 C         -1.1547761584       -3.4960928719       -0.6484946283
 C         -0.3666631484       -4.7536279637       -0.4426662643
 C         -1.7496772653       -4.6351043316        0.1217389482
 H         -2.5459608148       -5.2050094647       -0.3330481278
 H         -1.8608769534       -4.5073539121        1.1890003285
 H         -0.2143351929       -5.4108818958       -1.2853195111
 H          0.4646307627       -4.7158935620        0.2447616870
 H         -1.5573318125       -3.2956498123       -1.6344761874
