  62
        -98.94054202
 C         -1.5989864712       -0.5698064573        0.7484300657
 C         -2.9551744345       -0.7280255441        1.1359425431
 C         -3.9482544225       -0.7336758032        0.0542610137
 C         -3.5359848504       -0.5680826562       -1.2152652402
 C         -4.4425203631       -0.4929574958       -2.4088784402
 C         -4.8496462485        0.9569037047       -2.7062442082
 C         -5.3576871693        1.7194735137       -1.4824862730
 H         -4.5352584459        1.8440263695       -0.7739976553
 H         -5.6444979196        2.7184181782       -1.8183644250
 C         -6.5458454776        1.0582586009       -0.7698358432
 H         -7.2883212398        1.8260141930       -0.5421910616
 H         -7.0208286882        0.3357688225       -1.4345240203
 C         -6.1922305359        0.3745724992        0.5522238498
 H         -5.6328372306        1.0682563112        1.1850243805
 H         -7.1242159461        0.1371636185        1.0720240912
 C         -5.3888085994       -0.9268704405        0.4365584586
 H         -5.8847931496       -1.6044211765       -0.2614593735
 H         -5.3770777383       -1.3975450078        1.4239911640
 H         -3.9797271255        1.4865379240       -3.1021347989
 H         -5.6216582247        0.9475420981       -3.4779131790
 H         -3.9094477492       -0.8949295221       -3.2721852182
 H         -5.3274125556       -1.0993831746       -2.2253012353
 O         -2.2328744243       -0.4006825230       -1.5503113321
 C         -1.2299995243       -0.3847460589       -0.5853582298
 O         -0.0912926607       -0.2115026662       -1.0542018601
 O         -3.3195556485       -0.8573434696        2.3350984295
 C         -0.5604705633       -0.5349525133        1.8563526073
 C          0.2856834531        0.7067149621        1.7383730103
 C         -0.2730930436        1.9263088351        2.1119914557
 C          0.4610122155        3.0938854521        2.0417165853
 C          1.7676591148        3.0661328637        1.5877954982
 C          2.3309109718        1.8588194511        1.1952713803
 C          1.5934429875        0.6847397330        1.2767980439
 H          2.0392837225       -0.2444853326        0.9623286106
 N          3.6650570725        1.8044955827        0.7404752675
 S          3.9269106423        1.3395812682       -0.8581097049
 O          5.2365470903        1.8802206263       -1.1681768894
 O          2.8515645733        1.7766530462       -1.7167731887
 C          4.0521007561       -0.4331377041       -0.8141162400
 C          3.0618195778       -1.2125158831       -1.3761955782
 C          3.2208630193       -2.5904763075       -1.3711835105
 C          4.3500400619       -3.1579403899       -0.8012119543
 C          5.3294435478       -2.3580646375       -0.2308960647
 C          5.1840848924       -0.9807886814       -0.2412816964
 H          5.9280117490       -0.3195365081        0.1708909411
 H          6.2041458834       -2.8036560886        0.2149810214
 H          4.4651430496       -4.2306852030       -0.8013199034
 H          2.4565611561       -3.2125491553       -1.8096772702
 H          2.1819348342       -0.7364994451       -1.7801041274
 H          4.1738657698        2.6626861568        0.9076463148
 H          2.3483521303        3.9751231364        1.5295448519
 H          0.0155516643        4.0311963530        2.3397732853
 H         -1.2961542702        1.9451401950        2.4628577100
 H         -1.1598705153       -0.4389282864        2.7771216111
 C          0.2578307844       -1.8067344087        2.0148004486
 C         -0.4007224777       -3.1470265951        1.8803451856
 C          0.6194432065       -2.7079356834        0.8754186324
 H          1.5916769501       -3.1780586080        0.8922202090
 H          0.2866349189       -2.4321215401       -0.1120358936
 H         -0.1363828399       -3.9254822952        2.5797894608
 H         -1.4389925476       -3.1603329000        1.5816338302
 H          0.9946036310       -1.7091337146        2.8064540673
