  62
        -98.93825304
 C          2.4987248233       -1.3658865421       -0.1476374406
 C          2.5674329433       -0.3460081977        0.8281244474
 C          3.4911248132        0.7772041581        0.5599582471
 C          4.2132563886        0.7741343186       -0.5752264499
 C          5.1832841241        1.8112492150       -1.0761619827
 C          4.4827608940        3.0559720769       -1.6421874760
 C          3.3371941656        3.5912851288       -0.7873940460
 H          2.8675241916        4.4117601240       -1.3366216500
 H          2.5807453388        2.8126030841       -0.6684999586
 C          3.7433592820        4.1212094409        0.5859352043
 H          4.4812925533        4.9164450363        0.4593114041
 H          2.8512793884        4.5644430686        1.0365079231
 C          4.3032677678        3.0865787142        1.5651678149
 H          4.2945432893        3.5431381344        2.5592214066
 H          5.3407409265        2.8523199333        1.3426172415
 C          3.4852611050        1.8033928746        1.6678958448
 H          3.7954891493        1.2624489957        2.5700835720
 H          2.4329966605        2.0626332550        1.8362264714
 H          5.2306172087        3.8382036375       -1.7827171548
 H          4.0738824404        2.7986462052       -2.6223279171
 H          5.8798394743        2.0843643485       -0.2892632016
 H          5.7551736935        1.3401626621       -1.8786771678
 O          4.1157210697       -0.2327439824       -1.4895612972
 C          3.2676234924       -1.3043426047       -1.3136754810
 O          3.2898142083       -2.1351052864       -2.2437692367
 H         -0.1686135268       -1.1943184078        1.5364397997
 C         -0.5934144690       -1.4370783160        0.5743501935
 C          0.1636723531       -2.1480161088       -0.3455817950
 C         -0.3841750371       -2.4089615277       -1.5969728478
 C         -1.6575274815       -1.9708545363       -1.9143668853
 C         -2.4068136424       -1.2574457142       -0.9954258238
 C         -1.8623638046       -0.9794817404        0.2510128927
 N         -2.6070073684       -0.2318123444        1.1844001768
 S         -3.1580184720        1.2719450969        0.6707867804
 O         -2.3134863123        1.8224379261       -0.3650605833
 O         -3.2999400477        2.0621593630        1.8745075026
 C         -4.7778028236        0.9209072831        0.0184136281
 C         -5.6953397321        0.3109995798        0.8515328746
 C         -6.9612418034        0.0316956341        0.3622126370
 C         -7.2874046088        0.3671964541       -0.9435772374
 C         -6.3564296717        0.9829143939       -1.7660107413
 C         -5.0878426721        1.2644199473       -1.2827714928
 H         -4.3292006210        1.7362826140       -1.8869053760
 H         -6.6116472617        1.2438246294       -2.7805561774
 H         -8.2730717637        0.1479347340       -1.3226214331
 H         -7.6880906844       -0.4464563449        0.9988564229
 H         -5.4020479128        0.0706987337        1.8597591456
 H         -2.1338266388       -0.1369139920        2.0727213382
 H         -3.3957986435       -0.9050354340       -1.2394185696
 H         -2.0696954011       -2.1830633969       -2.8891449884
 H          0.2078871244       -2.9420031435       -2.3273133728
 C          1.5776501704       -2.5721490526       -0.0281930824
 H          1.9028098653       -3.2673501098       -0.8133829638
 C          1.6912320351       -3.2740700626        1.3099456935
 C          1.1867188934       -4.6791200356        1.4349235814
 C          2.6600899368       -4.4065697791        1.4597377346
 H          3.1901676635       -4.5096182274        2.3947414718
 H          3.2457253502       -4.6811861546        0.5943341436
 H          0.7025331045       -4.9730460402        2.3534240467
 H          0.7721548785       -5.1397044957        0.5509977743
 H          1.5693588639       -2.6151159116        2.1591152104
 O          1.8987786880       -0.3422627204        1.8977809736
