  62
        -98.94803264
 C         -1.2674104026       -1.0482886269        0.0073394349
 C         -1.6214629255        0.0491793127        0.8271968253
 C         -2.6587886256        0.9422761259        0.2971132603
 C         -3.1556428304        0.7136019504       -0.9322120653
 C         -4.2443865217        1.5185648699       -1.5796073295
 C         -5.6295522944        0.9330073328       -1.2707466423
 C         -5.8619212160        0.6449475415        0.2124128723
 H         -5.1865587715       -0.1527712394        0.5295727463
 H         -6.8805019774        0.2644162915        0.3138715266
 C         -5.6760743808        1.8604987493        1.1312078098
 H         -6.5028357465        1.8909148943        1.8439454300
 H         -5.7199954772        2.7787347215        0.5444128735
 C         -4.3835276111        1.8447000231        1.9491841134
 H         -4.2902022555        0.8868390307        2.4669750231
 H         -4.4541431997        2.6246203497        2.7120100301
 C         -3.0915535312        2.0937413348        1.1603500680
 H         -2.2835233536        2.2471277103        1.8821087653
 H         -3.1900760241        3.0041478279        0.5648102678
 H         -5.7394203472       -0.0029863978       -1.8232314898
 H         -6.3868591423        1.6314895029       -1.6313288993
 H         -4.1846557232        2.5473459288       -1.2289672802
 H         -4.0845761217        1.5049208838       -2.6592538338
 O         -2.7483883292       -0.3163253418       -1.7169850511
 C         -1.7952189447       -1.2214915915       -1.2717235301
 O         -1.5114400956       -2.1134788735       -2.0937713600
 H          0.8311510562        0.1725001679       -0.6069343975
 C          1.4307886584       -0.6970168291       -0.8267859272
 C          1.0242813109       -1.9435148231       -0.3717705562
 C          1.7968298246       -3.0506888599       -0.7003283486
 C          2.9351715258       -2.9035267018       -1.4742164130
 C          3.3438427257       -1.6566417899       -1.9118107024
 C          2.5807583256       -0.5421259550       -1.5830597792
 N          2.9530983907        0.7462543886       -1.9950145438
 S          2.6797318750        2.0427214442       -0.9739901683
 O          1.2846516992        2.4067721169       -0.9805657160
 O          3.5963186835        3.0606186787       -1.4435313359
 C          3.1934094533        1.4683510030        0.6354022719
 C          2.2712082584        1.1986058395        1.6250937859
 C          2.7201399190        0.6997745122        2.8385402744
 C          4.0730622467        0.4810938269        3.0420336897
 C          4.9890759686        0.7665333966        2.0403710050
 C          4.5469646810        1.2617037076        0.8253767607
 H          5.2279181623        1.5064270597        0.0264318706
 H          6.0420025564        0.6013644798        2.2020562689
 H          4.4143925319        0.0887114832        3.9869489869
 H          1.9990785947        0.4807069997        3.6100802790
 H          1.2204058017        1.3680303481        1.4481962839
 H          3.8496557808        0.8074258072       -2.4542931639
 H          4.2353516623       -1.5446279710       -2.5093083313
 H          3.5195599327       -3.7733099334       -1.7328632160
 H          1.5030226495       -4.0294125157       -0.3583079883
 C         -0.2087959803       -2.0181969815        0.4960867867
 H          0.0720052783       -1.6598798933        1.4988995197
 C         -0.7757925513       -3.4171420444        0.6206335096
 C         -0.2691822012       -4.3495507851        1.6792031231
 C         -1.6343235929       -3.7452605027        1.8044383179
 H         -2.4976267263       -4.3765439096        1.6566365964
 H         -1.7847752054       -2.9663336576        2.5378715312
 H          0.5057161723       -3.9864298778        2.3371210646
 H         -0.1968024051       -5.4014213300        1.4471502309
 H         -1.0643409038       -3.8340911772       -0.3375390176
 O         -1.0902449175        0.2719997252        1.9494099545
