  62
        -98.93948856
 C         -1.5653288966       -1.6127386689       -0.2075434390
 C         -1.4954734181       -0.2364585047       -0.5288659887
 C         -2.7837189141        0.4701407919       -0.6400578824
 C         -3.9273802714       -0.2049350150       -0.4351869789
 C         -5.3430896071        0.3088956499       -0.5157372789
 C         -5.6305043060        1.6791724464        0.1146593152
 C         -4.7809260172        2.0193704074        1.3482536219
 H         -5.4424692884        2.3335467388        2.1579001663
 H         -4.2458034110        1.1323546595        1.6916743863
 C         -3.7821410775        3.1507273944        1.0920031236
 H         -4.2833980268        3.9340977511        0.5191977878
 H         -3.4904673511        3.5840337459        2.0516715823
 C         -2.4981777580        2.7447409436        0.3684784177
 H         -1.8672266325        2.1480769460        1.0327218670
 H         -1.9437707148        3.6559857731        0.1339391030
 C         -2.6945325490        1.9412696641       -0.9266512501
 H         -3.5565731529        2.2961674981       -1.4861870314
 H         -1.7977971575        2.0706736360       -1.5381530407
 H         -5.4965058761        2.4590796839       -0.6335431908
 H         -6.6871769356        1.6851991860        0.3875824011
 H         -5.6403667481        0.3292387130       -1.5681748519
 H         -5.9512619441       -0.4550444660       -0.0253686853
 O         -3.9456670633       -1.5350349590       -0.1315382048
 C         -2.7774486485       -2.2665946229       -0.0008096321
 O         -2.9492516429       -3.4653268588        0.3022116983
 H          2.2922285220       -1.3791621927       -0.2117179922
 C          1.8397548469       -1.2635407259        0.7579495124
 C          0.5668928875       -1.7476443576        1.0091842778
 C          0.0326472700       -1.5929664245        2.2867927262
 C          0.7508598806       -0.9593469047        3.2813841429
 C          2.0129892593       -0.4539371307        3.0200500226
 C          2.5570261230       -0.6094951489        1.7513697389
 N          3.8383950174       -0.1225431495        1.4621823443
 S          4.2257004215        0.4493593276       -0.0565156863
 O          4.4040410356       -0.6505014474       -0.9719776053
 O          5.4022593159        1.2643965836        0.1705917601
 C          2.8875407005        1.4980029175       -0.5945641384
 C          2.4205918649        1.3798409160       -1.8860676341
 C          1.4354076686        2.2474510252       -2.3260215919
 C          0.9326923959        3.2107694452       -1.4679905809
 C          1.4048168169        3.3109113006       -0.1695088829
 C          2.3955197551        2.4513687739        0.2730824868
 H          2.7843060384        2.5139041164        1.2767724399
 H          1.0008855700        4.0533267599        0.5004528563
 H          0.1627333885        3.8840836214       -1.8120543820
 H          1.0567794878        2.1614537586       -3.3324127193
 H          2.8308328415        0.6083535785       -2.5187500854
 H          4.2690997911        0.4237112078        2.1930436732
 H          2.5725855951        0.0519650299        3.7919595010
 H          0.3228561179       -0.8475046083        4.2663088142
 H         -0.9607465606       -1.9740067340        2.4841538251
 C         -0.2816914592       -2.4082275907       -0.0493514787
 H         -0.5769005019       -3.4038782355        0.3116871185
 C          0.4173962139       -2.5573373403       -1.3834667907
 C          1.3773315646       -3.6861270935       -1.6043221009
 C          0.0424832297       -3.6921808568       -2.2859784521
 H          0.0047635539       -3.5143187153       -3.3502584072
 H         -0.7109125159       -4.3809941289       -1.9317990029
 H          1.5326602728       -4.3755245787       -0.7880167754
 H          2.2620363635       -3.5024540972       -2.1955856296
 H          0.6384209324       -1.6032370307       -1.8485992318
 O         -0.4147153229        0.3752666007       -0.7193072795
