  62
        -98.94098348
 C         -2.3006544065       -0.4230377707        0.2809039756
 C         -3.5583471663       -0.9116521313        0.7090172290
 C         -4.6747915495        0.0357211830        0.6223266336
 C         -4.4539671108        1.2876333853        0.1811797783
 C         -5.4859386427        2.3756978622        0.0561552931
 C         -6.2948701947        2.3207684606       -1.2471864906
 C         -7.3178361621        1.1871525551       -1.3310435506
 H         -7.9498070888        1.2034469320       -0.4426442941
 H         -7.9578625314        1.3967805396       -2.1903711247
 C         -6.7034431738       -0.2091093473       -1.5028605091
 H         -7.2393951940       -0.7490508483       -2.2866911756
 H         -5.6664449339       -0.1130080890       -1.8331259761
 C         -6.7430987086       -1.0783284722       -0.2459777130
 H         -7.7807220202       -1.2929308917        0.0189089789
 H         -6.2490894845       -2.0270627215       -0.4703934588
 C         -6.0462789130       -0.4581666723        0.9721500568
 H         -5.9356100366       -1.2325243428        1.7351100160
 H         -6.6505836078        0.3517989491        1.3796648181
 H         -6.8277053220        3.2699523333       -1.3397078509
 H         -5.5990640428        2.2473262956       -2.0862757120
 H         -6.1642314037        2.3378151785        0.9089728311
 H         -4.9427351684        3.3226810548        0.0846493400
 O         -3.2227535012        1.7272017938       -0.1956882007
 C         -2.1216359778        0.8827406072       -0.1744149587
 O         -1.0639129195        1.4097275119       -0.5712658613
 O         -3.7361978321       -2.0789160157        1.1491940795
 C         -1.1038103973       -1.3550714836        0.3102626246
 C          0.0047138849       -0.7639397089        1.1450202200
 C         -0.2929057460       -0.2936726378        2.4219322379
 C          0.6900401066        0.2640581512        3.2150600681
 C          1.9903256394        0.3655543029        2.7522368909
 C          2.3029484903       -0.1169328696        1.4873175314
 C          1.3134687741       -0.6854875195        0.6961611909
 H          1.5801125545       -1.0455590767       -0.2823716820
 N          3.6318024439       -0.0744327737        1.0247351412
 S          3.9648490928        0.2798842933       -0.5919718729
 O          3.4266884935        1.5735858982       -0.9505164787
 O          3.5674718153       -0.8346141286       -1.4135534359
 C          5.7457809797        0.3560518789       -0.5158379257
 C          6.4520556096       -0.8305848202       -0.4562702597
 C          7.8344058704       -0.7840570518       -0.3728248764
 C          8.4845091504        0.4411282966       -0.3506253128
 C          7.7627564239        1.6233970944       -0.4134946288
 C          6.3794299171        1.5837364327       -0.4951646887
 H          5.7773244219        2.4763477991       -0.5540526287
 H          8.2707614951        2.5742278553       -0.3995659819
 H          9.5606331326        0.4748564863       -0.2868352438
 H          8.3991982204       -1.7011616308       -0.3262620621
 H          5.9045477358       -1.7579893918       -0.4859281980
 H          4.2199713221        0.4927074265        1.6218088459
 H          2.7568362723        0.8119546014        3.3677008356
 H          0.4420303710        0.6316800275        4.1996078378
 H         -1.3116223044       -0.3635019934        2.7791964357
 H         -1.4585541343       -2.2704552883        0.8081937524
 C         -0.6778001852       -1.7048119917       -1.1000340380
 C         -0.0155348275       -3.0182357814       -1.3858098542
 C         -1.4208959818       -2.7722923834       -1.8437355252
 H         -1.6057029263       -2.6324718557       -2.8983376177
 H         -2.2239232032       -3.2708586858       -1.3206010846
 H          0.7736754633       -3.0437406256       -2.1223284260
 H          0.1357683548       -3.6903549824       -0.5546974610
 H         -0.3515916754       -0.8366936748       -1.6642922949
