  62
        -98.93696133
 C         -2.1268924430       -1.1671873574        0.1461484766
 C         -2.0713506924       -0.0735322603       -0.7548663479
 C         -2.6146524785        1.1963286663       -0.2446699974
 C         -3.0914512311        1.2775769202        1.0088717633
 C         -3.6418436154        2.5100182834        1.6746804807
 C         -5.1150606841        2.7935645970        1.3505727792
 C         -5.3842541208        3.3049413639       -0.0651931119
 H         -6.4133152929        3.6690814616       -0.0841821052
 H         -4.7333024886        4.1546980680       -0.2728101728
 C         -5.2157755849        2.2459573557       -1.1635843266
 H         -5.2250827821        1.2502738453       -0.7143081131
 H         -6.0628346129        2.2958779359       -1.8513764587
 C         -3.9445037774        2.3967813173       -1.9993260109
 H         -3.9807307898        3.3348947544       -2.5576856985
 H         -3.9068136703        1.5764892023       -2.7207159865
 C         -2.6465895187        2.3657200076       -1.1818602097
 H         -1.8036708650        2.2588039184       -1.8699512924
 H         -2.5249249778        3.2974934974       -0.6293097005
 H         -5.6916012565        1.8823077939        1.5249197071
 H         -5.4636770529        3.5488084289        2.0586540544
 H         -3.5507646094        2.3462675798        2.7506376078
 H         -3.0332711591        3.3730516187        1.4024252917
 O         -3.1105438395        0.2089630963        1.8506403417
 C         -2.6318576267       -1.0234088928        1.4411445546
 O         -2.7151977553       -1.9154214647        2.3107814767
 H          0.4208517264       -0.7169016281       -0.1427645196
 C          0.7167842936       -1.6416513226        0.3290238241
 C         -0.1851954151       -2.6926638699        0.4133033722
 C          0.2171602362       -3.8718171638        1.0295875625
 C          1.4993889380       -3.9978111340        1.5340095092
 C          2.3987587254       -2.9521927611        1.4387823562
 C          1.9991535767       -1.7592490798        0.8436493498
 N          2.8759144393       -0.6647854667        0.7984925399
 S          2.6551147239        0.5636500302       -0.3339204068
 O          1.5567514091        1.3942485240        0.0909319383
 O          2.5868815616        0.0076855046       -1.6664169858
 C          4.1899892202        1.4462146802       -0.1204711196
 C          5.2321973881        1.2243065700       -1.0005154978
 C          6.4291422680        1.8959803561       -0.8061069759
 C          6.5636695174        2.7719323061        0.2604568441
 C          5.5082269837        2.9859420162        1.1347673669
 C          4.3087425268        2.3183982159        0.9451877456
 H          3.4578305284        2.4592605731        1.5913455254
 H          5.6148457445        3.6701951419        1.9610235305
 H          7.4956394844        3.2937685687        0.4097720377
 H          7.2497006053        1.7344171723       -1.4863744780
 H          5.0774947039        0.5416568984       -1.8205454612
 H          3.8473895010       -0.9227545393        0.9018294471
 H          3.3979006681       -3.0481185033        1.8349399891
 H          1.8019150461       -4.9196894340        2.0068952704
 H         -0.4872661151       -4.6850353704        1.1246596314
 C         -1.5748402442       -2.5509346679       -0.1576634091
 H         -2.2228180915       -3.2569337574        0.3886091446
 C         -1.6356528695       -2.9299074969       -1.6298943706
 C         -0.4508561545       -2.8641056682       -2.5408373275
 C         -0.9932688953       -4.1946333433       -2.1189818857
 H         -1.5223823705       -4.7894051032       -2.8480635403
 H         -0.4125662824       -4.7689304290       -1.4136145062
 H         -0.6170326097       -2.5236016260       -3.5514491448
 H          0.4893237000       -2.5280493718       -2.1294376978
 H         -2.5920772673       -2.6686533315       -2.0711091702
 O         -1.6097628309       -0.1242606707       -1.9232831976
