  62
        -98.94453808
 C         -1.7043649345       -1.5679673131       -0.6555311591
 C         -1.5116003429       -0.3374986258       -1.3296969982
 C         -2.5438805082        0.6883363431       -1.1061487598
 C         -3.5741098419        0.4291373347       -0.2834098543
 C         -4.6680543482        1.3971032964        0.0613493656
 C         -4.3284542013        2.2094890828        1.3179152244
 C         -2.9391419762        2.8477184552        1.2924029745
 H         -2.8374473772        3.4398943105        2.2051840667
 H         -2.1745235162        2.0679583191        1.3376025137
 C         -2.6684382204        3.7401557452        0.0732925309
 H         -2.1799627747        4.6552220640        0.4150774677
 H         -3.6105653320        4.0287755229       -0.3956428252
 C         -1.7459940898        3.1066554406       -0.9698132793
 H         -1.4055199293        3.8928882416       -1.6495963461
 H         -0.8662719206        2.7011715062       -0.4632693794
 C         -2.3746562376        1.9978474730       -1.8240173479
 H         -3.3291388081        2.3415059280       -2.2292557782
 H         -1.6984170806        1.7969867101       -2.6602783589
 H         -5.0842981835        2.9885721338        1.4373103560
 H         -4.3833630684        1.5470037522        2.1850715864
 H         -5.5819000012        0.8288133288        0.2449257681
 H         -4.8313590322        2.0659218481       -0.7816978347
 O         -3.7215386006       -0.7582420586        0.3596644187
 C         -2.7889948317       -1.7687405773        0.2022538205
 O         -3.0395040503       -2.8005072487        0.8592781457
 O         -0.5448355656       -0.0871046182       -2.0937995524
 C         -0.7328880747       -2.7369868591       -0.7365904719
 C          0.2469299885       -2.6542441323        0.4066866346
 C          0.4934462278       -3.7448272187        1.2307026915
 C          1.3586128099       -3.6263544191        2.3047120666
 C          1.9801651149       -2.4225192955        2.5803354476
 C          1.7441731337       -1.3244409809        1.7571055182
 C          0.8970911749       -1.4562354035        0.6679930887
 H          0.7034370272       -0.6043845138        0.0401201936
 N          2.3734229279       -0.1039240727        2.0116854810
 S          1.8670810364        1.3829489323        1.4355743945
 O          2.3883631761        2.3218743143        2.4081140879
 O          0.4427519622        1.4250720192        1.2154724408
 C          2.7946346130        1.5641093356       -0.0744177708
 C          2.2212088036        1.3532632445       -1.3109189273
 C          3.0133302744        1.4802442345       -2.4430434125
 C          4.3527042474        1.8124958233       -2.3237637196
 C          4.9134742604        2.0250721777       -1.0727191804
 C          4.1296908802        1.8993401808        0.0610918941
 H          4.5198324091        2.0686614381        1.0510716790
 H          5.9553192458        2.2863916327       -0.9795853463
 H          4.9613720133        1.9076799050       -3.2092435507
 H          2.5685795969        1.3114224822       -3.4106872931
 H          1.1791369119        1.0861349979       -1.3989405811
 H          2.8631407000       -0.0359154631        2.8898129433
 H          2.6375698159       -2.3258665469        3.4309135775
 H          1.5396506434       -4.4771846783        2.9440795612
 H         -0.0156513397       -4.6785752033        1.0418744603
 H         -1.3470710504       -3.6383867925       -0.5770597971
 C         -0.0587560131       -2.8840316801       -2.0925698910
 C          1.3739197425       -2.5353900909       -2.3469588622
 C          0.9522773287       -3.9717118502       -2.3073581030
 H          0.9219551397       -4.5307691663       -3.2302315707
 H          1.2445927676       -4.5536372088       -1.4461747055
 H          1.6149587279       -2.0878818346       -3.2986783880
 H          1.9607439346       -2.1509038712       -1.5273527171
 H         -0.7501114404       -2.6945549001       -2.9069941946
