  62
        -98.94103466
 C         -2.3906330796       -0.1808029896        0.1742877316
 C         -1.5327691602        0.2647210208       -0.8578977287
 C         -1.4218266603        1.7214358109       -1.0176128482
 C         -2.1139407898        2.5298343306       -0.1953157475
 C         -2.1070470299        4.0299646406       -0.2548968770
 C         -1.0388219693        4.6365292503        0.6633724726
 C          0.3505292006        4.0231611003        0.4887352716
 H          1.0320025710        4.5716918501        1.1437748814
 H          0.3387482308        2.9895930102        0.8432029112
 C          0.8855769597        4.0579505109       -0.9495786187
 H          0.3396199894        4.8003968811       -1.5336389781
 H          1.9319392898        4.3697540809       -0.9220396392
 C          0.8438850593        2.7058953711       -1.6640081292
 H          1.2685852197        1.9454977909       -1.0040495097
 H          1.4797094988        2.7674271115       -2.5515521295
 C         -0.5410393009        2.2315005613       -2.1237149986
 H         -1.0398972813        3.0321634315       -2.6746775580
 H         -0.3955980413        1.3859441015       -2.8022655390
 H         -0.9912621194        5.7106255803        0.4711814030
 H         -1.3478185287        4.4901195099        1.7011048127
 H         -1.9345079305        4.3426222110       -1.2831943070
 H         -3.0887410897        4.3864669705        0.0634474137
 O         -2.9064058592        2.0653233702        0.8055584028
 C         -3.0510994091        0.7060256901        1.0223156323
 O         -3.7943814785        0.4122330698        1.9832972127
 O         -0.9010817906       -0.5112520789       -1.6210824794
 C         -2.6123687594       -1.6718448697        0.4140347712
 C         -1.2723414294       -2.3681851196        0.3794608802
 C         -0.8931451399       -3.4725991794       -0.3728679605
 C          0.3954125602       -3.9774846394       -0.2931557814
 C          1.3496631206       -3.3831660997        0.5087371582
 C          0.9847006911       -2.2785596300        1.2694731989
 C         -0.3165493489       -1.8130837199        1.2294631698
 H         -0.5787933586       -0.9577177902        1.8361500803
 N          1.9185416115       -1.5879746002        2.0735746286
 S          2.2863298112       -0.0266913501        1.5799381489
 O          3.2585610218        0.4551268696        2.5383054586
 O          1.0772474312        0.7437181100        1.4547444899
 C          3.0830387103       -0.2382627795       -0.0032987916
 C          4.4603558803       -0.1408383294       -0.0635793624
 C          5.0981992696       -0.3567800190       -1.2739654828
 C          4.3511202689       -0.6754748486       -2.3982350325
 C          2.9710482690       -0.7745129786       -2.3192312917
 C          2.3235311797       -0.5562125391       -1.1120477213
 H          1.2484847897       -0.6215006191       -1.0390473407
 H          2.3822268485       -1.0206687383       -3.1881857915
 H          4.8460793884       -0.8462818082       -3.3412816929
 H          6.1716458795       -0.2776708490       -1.3359437134
 H          4.9969001808        0.1114811202        0.8368793574
 H          2.7814899216       -2.0951591203        2.2187295779
 H          2.3616548307       -3.7577333497        0.5422195575
 H          0.6621632398       -4.8368878092       -0.8893062119
 H         -1.5791555703       -3.9490854391       -1.0485006503
 H         -2.9753861888       -1.7459952600        1.4538640014
 C         -3.7785714199       -2.1061034793       -0.4628929983
 C         -3.6688812808       -2.5625192888       -1.8835130285
 C         -4.1395927501       -3.5158537092       -0.8233837086
 H         -5.1883826201       -3.7745417292       -0.8127068181
 H         -3.4982058599       -4.3190611493       -0.5013457893
 H         -4.3953083812       -2.1863285786       -2.5894628680
 H         -2.6815620310       -2.6661468787       -2.3029092891
 H         -4.6238268698       -1.4555852794       -0.2446334275
