  62
        -98.94463743
 C         -1.9943291817       -0.7806483410        0.5453368180
 C         -1.9769603868       -0.0787234814       -0.6837559041
 C         -2.0802387746        1.3831954126       -0.5876769510
 C         -2.1218305625        1.9621642388        0.6257825596
 C         -2.2562204560        3.4374754053        0.8682976658
 C         -3.7294510508        3.8531191952        0.9872474150
 C         -4.6146375805        3.3187434170       -0.1386020962
 H         -4.6615871376        2.2298174285       -0.0667182336
 H         -5.6241609876        3.6975641097        0.0343458060
 C         -4.1543435351        3.7133060364       -1.5487408429
 H         -5.0241271119        4.0397884318       -2.1225316443
 H         -3.4671355725        4.5580001958       -1.4909330830
 C         -3.4977903346        2.5812672735       -2.3410882220
 H         -3.4092816776        2.9015299556       -3.3825216426
 H         -4.1427394311        1.6993018500       -2.3228730719
 C         -2.0984169498        2.1621873539       -1.8723030452
 H         -1.6754243830        1.4939903610       -2.6283273659
 H         -1.4524483412        3.0395325481       -1.7965697035
 H         -4.1179544553        3.4774227336        1.9365809264
 H         -3.7791950590        4.9432837781        1.0065060717
 H         -1.7404718332        3.6786272131        1.7996082243
 H         -1.7777447716        3.9757770732        0.0522322451
 O         -2.0947896207        1.2569711103        1.7868741382
 C         -2.0289714338       -0.1265495410        1.7750241129
 O         -2.0124348815       -0.6518045596        2.9086653870
 H          0.5123889233       -1.1607901941        0.9298996626
 C          0.5733988081       -1.9474537816        0.1904818107
 C         -0.5668390057       -2.6703227516       -0.1373494517
 C         -0.4603308078       -3.6888796877       -1.0749536883
 C          0.7523762987       -3.9453374397       -1.6918602966
 C          1.8729307207       -3.1912204814       -1.3979506756
 C          1.7808528531       -2.1837936977       -0.4431719082
 N          2.9041646406       -1.4124524911       -0.0950873249
 S          2.6609025571        0.1971018592        0.3546813022
 O          2.2984432613        0.2387301083        1.7506131963
 O          1.7594557610        0.8531312023       -0.5653655757
 C          4.3182847507        0.8256579739        0.1537929561
 C          4.6480610710        1.5246129698       -0.9918541789
 C          5.9487442398        1.9775154183       -1.1498409394
 C          6.8929417827        1.7216707589       -0.1669537730
 C          6.5469275353        1.0188989299        0.9778826625
 C          5.2480821381        0.5648645756        1.1428303550
 H          4.9287275199        0.0236874942        2.0182102646
 H          7.2826736333        0.8240408122        1.7413125491
 H          7.9042261122        2.0746991402       -0.2925213714
 H          6.2193672777        2.5267221431       -2.0371972438
 H          3.8776955090        1.7045248691       -1.7246729615
 H          3.6591973835       -1.4993443946       -0.7621150074
 H          2.8105676561       -3.3766559146       -1.8993822739
 H          0.8205993166       -4.7335181717       -2.4262979745
 H         -1.3291709366       -4.2712467643       -1.3344669449
 C         -1.8581509139       -2.2929775230        0.5488302931
 H         -1.7857338122       -2.5906594668        1.6057636954
 C         -3.0826686746       -2.9413921149       -0.0621270701
 C         -3.5145933474       -4.3066581421        0.3793655596
 C         -4.3107334198       -3.1024641594        0.7807613613
 H         -5.2752291653       -2.9426911134        0.3227301456
 H         -4.2530882701       -2.7659768453        1.8060126796
 H         -3.9375662871       -4.9761898619       -0.3542282746
 H         -2.9227473706       -4.7966229292        1.1376743621
 H         -3.2203162052       -2.6681040889       -1.1019699511
 O         -1.8865755185       -0.6454449119       -1.8048533113
