  62
        -98.93183185
 C         -2.1801229856       -1.1539053015       -0.3205395976
 C         -2.7768290788       -0.4974681898        0.7836792591
 C         -3.2304088201        0.8922208188        0.5904759279
 C         -3.0407458965        1.4688944984       -0.6105209911
 C         -3.4402898205        2.8493136629       -1.0598570698
 C         -4.9475447040        2.9739374365       -1.3341401720
 C         -5.8474861242        2.3297961576       -0.2831520289
 H         -6.8772031239        2.3936566071       -0.6443034019
 H         -5.5978995732        1.2706779977       -0.1987362530
 C         -5.7966317620        2.9745797808        1.0997759396
 H         -6.5533781950        2.4819398357        1.7153866867
 H         -6.0717123396        4.0280969521        1.0146700749
 C         -4.4565598235        2.8801479036        1.8327444199
 H         -4.6370134660        3.1463873738        2.8783307263
 H         -3.7444344699        3.6062391484        1.4493605385
 C         -3.8308757266        1.4889139946        1.8404493519
 H         -3.0252108364        1.4726754339        2.5851359029
 H         -4.5689540745        0.7628637390        2.2001735193
 H         -5.1932633181        4.0329575600       -1.4283263577
 H         -5.1564508763        2.4918255937       -2.2921669798
 H         -3.1149922840        3.5851775714       -0.3302017421
 H         -2.8991926353        3.0437098531       -1.9886748533
 O         -2.4533975310        0.8045947542       -1.6445443662
 C         -1.9846174977       -0.4942718554       -1.5331962160
 O         -1.4340241812       -0.9156978293       -2.5686216906
 O         -2.9360321000       -1.0593249207        1.9017991406
 C         -1.6864928336       -2.5704071846       -0.0801357229
 C         -0.2797749884       -2.5232846860        0.4611197518
 C          0.0822782864       -3.2131725372        1.6112389696
 C          1.3629940820       -3.1039845247        2.1265984029
 C          2.3044924005       -2.2987112790        1.5109139659
 C          1.9518839769       -1.6102563247        0.3589825998
 C          0.6747630140       -1.7314750277       -0.1629463513
 H          0.4100056470       -1.1859772700       -1.0581982274
 N          2.9006549765       -0.7443370396       -0.2502217138
 S          2.9723314546        0.7613683046        0.5260844582
 O          3.0159023098        0.5368371744        1.9482996133
 O          1.9093691106        1.6182881305        0.0398467787
 C          4.5499809882        1.3683144898       -0.0377373184
 C          5.6932681161        0.8472614452        0.5367952025
 C          6.9281142664        1.2885485168        0.0900126616
 C          6.9985926612        2.2367718013       -0.9199665445
 C          5.8421708645        2.7496699611       -1.4872407390
 C          4.6035060880        2.3112795562       -1.0451330417
 H          3.6781633283        2.6870523291       -1.4519060530
 H          5.8990758292        3.4879536798       -2.2709256649
 H          7.9606489901        2.5801852343       -1.2659473170
 H          7.8296618388        0.8933319278        0.5294741134
 H          5.5884475579        0.1191326717        1.3236745800
 H          2.6462109738       -0.5596702226       -1.2135356507
 H          3.2945754166       -2.1794203458        1.9181203686
 H          1.6259778831       -3.6416268049        3.0247496158
 H         -0.6560431385       -3.8178557289        2.1173572314
 H         -2.3327936792       -2.9643518153        0.7203493005
 C         -1.8371993082       -3.4871133483       -1.2846912060
 C         -0.6772907513       -4.0042848118       -2.0765075834
 C         -1.4380565062       -4.9293581364       -1.1778776530
 H         -2.0769234389       -5.6770512320       -1.6223399016
 H         -0.9558905971       -5.2430079687       -0.2643209043
 H         -0.8024451013       -4.0910139561       -3.1448710793
 H          0.3164650933       -3.7075339747       -1.7795916662
 H         -2.7403087184       -3.2710140585       -1.8458876988
