  62
        -98.93990102
 C          2.6342131543       -0.2047272591       -0.5537538633
 C          2.1731831775        0.2426420869        0.7105944637
 C          1.9903362173        1.6957212474        0.8512163577
 C          2.2401549397        2.5009010332       -0.1957759863
 C          2.0977001434        3.9950040988       -0.1881072664
 C          0.7067405390        4.4408695937       -0.6562763745
 C         -0.4498014587        3.7223670958        0.0396107189
 H         -1.3752352038        4.1733438135       -0.3267517265
 H         -0.4684806382        2.6733054808       -0.2646069999
 C         -0.4229910354        3.7987452104        1.5721346922
 H         -1.4349857807        4.0065722649        1.9263522435
 H          0.2117689701        4.6262374955        1.8936917540
 C          0.0298961293        2.5111647796        2.2646501804
 H         -0.5198725171        1.6589093057        1.8532449736
 H         -0.2322790718        2.5843339253        3.3242170237
 C          1.5314153658        2.2045392297        2.1879990725
 H          2.1031489784        3.0878426791        2.4832073229
 H          1.7416422520        1.4024808929        2.9019464774
 H          0.6198953309        5.5165435228       -0.4892577374
 H          0.6258585344        4.2549448575       -1.7297327517
 H          2.2873449275        4.3625341626        0.8187181552
 H          2.8472804276        4.4108688488       -0.8642444973
 O          2.6417322058        2.0328862610       -1.4060547996
 C          2.8137543656        0.6757899649       -1.6219801967
 O          3.1275020973        0.3810815917       -2.7941842106
 H          0.3238908062       -1.1898260043       -1.5320952331
 C          0.3674091021       -1.9959446703       -0.8079289593
 C          1.6052492769       -2.4227453394       -0.3431210772
 C          1.6388542418       -3.4470535031        0.5929534645
 C          0.4625554756       -3.9951795612        1.0762339619
 C         -0.7679438131       -3.5290694860        0.6481622503
 C         -0.8075664102       -2.5254684502       -0.3067760378
 N         -2.0701511161       -1.9817654592       -0.7060121256
 S         -2.2937043877       -0.4825703904        0.0556680742
 O         -1.5366682883        0.5440942098       -0.6309446749
 O         -2.0414233519       -0.6521622585        1.4626252800
 C         -4.0381496122       -0.2251585343       -0.2106003809
 C         -4.4730134430        0.7506724486       -1.0851237734
 C         -5.8351942469        0.9052361391       -1.2934017682
 C         -6.7324529189        0.0822575322       -0.6306080858
 C         -6.2797849177       -0.8945006728        0.2444732409
 C         -4.9201907132       -1.0520050451        0.4582328748
 H         -4.5199274116       -1.7905546896        1.1325535002
 H         -6.9807885853       -1.5319648430        0.7586523510
 H         -7.7913385091        0.2038538338       -0.7958343391
 H         -6.1890809594        1.6651595372       -1.9714432120
 H         -3.7385580190        1.3690550826       -1.5761914430
 H         -2.0860444892       -1.7996397415       -1.7025422571
 H         -1.6894958950       -3.9171288227        1.0498090529
 H          0.5063742662       -4.7786727574        1.8174967825
 H          2.5866713112       -3.7881544239        0.9767505244
 C          2.8169464349       -1.6852802913       -0.8558545322
 H          2.8135121751       -1.7507933007       -1.9570296169
 C          4.1391172811       -2.2745104721       -0.3914785613
 C          5.3651803505       -1.4183433646       -0.2874845282
 C          4.7300074200       -1.9714152348        0.9510615017
 H          5.2408136552       -2.7663551215        1.4746412720
 H          4.1846749506       -1.3022843816        1.5970107959
 H          5.2545512403       -0.3631940132       -0.4929771347
 H          6.3081031235       -1.8308593017       -0.6135168273
 H          4.2878411098       -3.2796731554       -0.7740400902
 O          1.9439964271       -0.5193441254        1.6849468055
