  62
        -98.94591980
 C          1.2954164640        1.4228202519        0.6240923981
 C          2.3720844213        1.3165230740       -0.2910142304
 C          3.3686981376        0.2751442588        0.0072363127
 C          3.2158308631       -0.5015684845        1.0939142298
 C          4.1334710457       -1.6231965062        1.4858685518
 C          3.6920598545       -2.9622359611        0.8777758428
 C          3.3800049748       -2.8922958173       -0.6169182917
 H          2.5099975545       -2.2506000263       -0.7730869099
 H          3.1040583189       -3.8991663031       -0.9371690905
 C          4.5413843368       -2.3865383255       -1.4836499980
 H          4.6271648661       -3.0277215440       -2.3633981888
 H          5.4790569498       -2.4672105201       -0.9323569097
 C          4.3749042695       -0.9534638845       -1.9916079549
 H          3.3949259037       -0.8415874434       -2.4620944144
 H          5.1302215072       -0.7761509433       -2.7618246461
 C          4.5316177992        0.1484079025       -0.9363480831
 H          4.5952400824        1.1053271614       -1.4623613295
 H          5.4612458228       -0.0009487639       -0.3832880380
 H          2.7971158854       -3.3053348509        1.4020908186
 H          4.4829975217       -3.6941254546        1.0518929790
 H          4.1248717365       -1.7078915189        2.5740916396
 H          5.1441095485       -1.3831534481        1.1605278443
 O          2.1718275608       -0.3683434859        1.9526710262
 C          1.1965652176        0.5918369247        1.7432321469
 O          0.3051517478        0.6083184800        2.6169085475
 O          2.5202891202        2.0467370409       -1.3046023056
 C          0.1725705646        2.4361834548        0.4547300636
 C         -0.7897543249        1.9553041360       -0.6056308005
 C         -0.5130889942        2.0740546640       -1.9637208497
 C         -1.4110293044        1.6013298159       -2.9030792888
 C         -2.5905958666        0.9926444708       -2.5119425214
 C         -2.8745985510        0.8645875128       -1.1575875179
 C         -1.9786458817        1.3529312396       -0.2165811115
 H         -2.2159208488        1.2562034746        0.8323567321
 N         -4.0678041533        0.2582721972       -0.7309840672
 S         -4.0396083822       -0.8130913627        0.5540539907
 O         -5.2622301786       -1.5735859469        0.4077759412
 O         -3.8867830410       -0.0971224125        1.7937916831
 C         -2.6356461512       -1.8646719946        0.2362358443
 C         -2.7617976963       -2.8175285430       -0.7570797260
 C         -1.6744025567       -3.6178165867       -1.0638806837
 C         -0.4799678577       -3.4496605299       -0.3789653483
 C         -0.3719263734       -2.4916750043        0.6158210695
 C         -1.4569702767       -1.6879794299        0.9298430610
 H         -1.3881023317       -0.9357916202        1.7003845730
 H          0.5517625990       -2.3517028365        1.1553386440
 H          0.3706014099       -4.0685763805       -0.6175939278
 H         -1.7576375611       -4.3674800591       -1.8340727447
 H         -3.7110738683       -2.9267886404       -1.2561363971
 H         -4.6457899586       -0.0932036547       -1.4808794416
 H         -3.2890472367        0.6221777243       -3.2466692916
 H         -1.1862745544        1.7014673670       -3.9540782960
 H          0.4193870057        2.5163284351       -2.2751942662
 H         -0.3674724362        2.4421118730        1.4114967690
 C          0.6751808215        3.8402198140        0.1833322855
 C         -0.2580039831        4.9932176590        0.3921089673
 C          0.8875343519        4.7753592526        1.3336228506
 H          1.7244009917        5.4565881576        1.2964397708
 H          0.6694465294        4.4069988437        2.3260321048
 H         -0.2099669978        5.8263517100       -0.2920877270
 H         -1.2538716260        4.7713381202        0.7461716640
 H          1.3772269337        3.9008326998       -0.6371514787
