  62
        -98.94469045
 C          1.8054838720       -0.5617823288        0.4675276689
 C          2.8679143819       -1.3134118539       -0.0898516243
 C          4.2198459130       -0.8327111364        0.2147751208
 C          4.3823008810        0.2476907157        1.0001733269
 C          5.6977800159        0.8427639045        1.4243075550
 C          6.3071280859        1.8071820965        0.3974545100
 C          6.8814377342        1.1450972957       -0.8556733258
 H          7.4636586674        1.9048933215       -1.3808692404
 H          7.5704094027        0.3522828218       -0.5627491019
 C          5.8236748644        0.5826299494       -1.8154530135
 H          6.0661139600        0.8789120999       -2.8385225092
 H          4.8499358178        1.0178546329       -1.5786488569
 C          5.7021412932       -0.9412280832       -1.8016469188
 H          4.9024817283       -1.2276912203       -2.4893939244
 H          6.6319267964       -1.3860537405       -2.1629564749
 C          5.3786327263       -1.5364964375       -0.4248736860
 H          5.0973075245       -2.5834956260       -0.5612065191
 H          6.2555989892       -1.4908403664        0.2203129570
 H          7.1129132933        2.3491189966        0.8979926987
 H          5.5460014390        2.5359649154        0.1090681868
 H          5.5045228827        1.3976217788        2.3449777514
 H          6.4080826493        0.0447047000        1.6423161950
 O          3.3345739481        0.9327087433        1.5314066826
 C          2.0235853704        0.5630017103        1.2628569322
 O          1.1672248995        1.3002584055        1.7872343583
 H         -1.9815260478        0.3038450331        0.8752278525
 C         -1.5421758672        0.6617206314       -0.0404803122
 C         -0.3593683943        0.1205281760       -0.5175090427
 C          0.1818168836        0.6305501327       -1.6963520638
 C         -0.4320021655        1.6700410289       -2.3653818126
 C         -1.6076725936        2.2166569388       -1.8803930904
 C         -2.1605141484        1.7107369308       -0.7105798100
 N         -3.3460038937        2.2521094616       -0.2001655138
 S         -4.4278677480        1.3398154792        0.6734363123
 O         -5.6762169147        2.0647826668        0.5583484423
 O         -3.9545933439        1.1236181979        2.0176420416
 C         -4.5638945053       -0.2239566693       -0.1776786459
 C         -4.6305220260       -0.2448285181       -1.5568135001
 C         -4.7572404649       -1.4639519025       -2.2028177365
 C         -4.8221884851       -2.6357290741       -1.4646522453
 C         -4.7638577425       -2.5980062886       -0.0805525279
 C         -4.6332704419       -1.3813730358        0.5699265901
 H         -4.5778407070       -1.3049764536        1.6438999764
 H         -4.8156268162       -3.5091404181        0.4937051306
 H         -4.9193956528       -3.5833065012       -1.9705847297
 H         -4.8038369654       -1.4962377493       -3.2794082871
 H         -4.5822399226        0.6785269201       -2.1101053003
 H         -3.7952455063        2.9489464851       -0.7742504977
 H         -2.0858430345        3.0360740567       -2.3949433832
 H          0.0043538660        2.0591326584       -3.2729215374
 H          1.1012704681        0.2034737028       -2.0729238701
 C          0.3770497582       -0.9927002526        0.1832408053
 H          0.4638103200       -1.8390796042       -0.5141696239
 C         -0.2921858787       -1.4766269976        1.4509316940
 C         -1.4018824781       -2.4806910243        1.3794341777
 C         -0.0557828620       -2.8875864803        1.8968641889
 H          0.0561190714       -3.0826393700        2.9528967660
 H          0.5698240085       -3.5059608944        1.2699367267
 H         -2.2151072530       -2.3933389514        2.0834520530
 H         -1.6994539958       -2.8283458022        0.4018152839
 H         -0.3427555708       -0.7118966990        2.2185608283
 O          2.6937610207       -2.3341185156       -0.8076568020
