  62
        -98.94019221
 C         -2.4524581800       -0.9610071494       -0.0330378902
 C         -2.5803360801        0.4215704205        0.2435866504
 C         -3.9274762601        0.8718798702        0.6174861509
 C         -4.9314273400       -0.0193511000        0.7070984207
 C         -6.3512608099        0.2823326997        1.1040189112
 C         -7.2301303603        0.7847749200       -0.0495946884
 C         -6.9385966405        2.2117433402       -0.5154563179
 H         -7.7607498607        2.5095603304       -1.1691856476
 H         -6.9467589104        2.8824362999        0.3442016523
 C         -5.6176600907        2.3698993207       -1.2813910982
 H         -5.2693551407        1.3895189409       -1.6147420286
 H         -5.7859716410        2.9707479510       -2.1780267079
 C         -4.5006777006        3.0463908205       -0.4864356882
 H         -4.7831463207        4.0772759804       -0.2615056177
 H         -3.6029609108        3.0715201909       -1.1096534884
 C         -4.1439158802        2.3400703901        0.8281192115
 H         -3.2073831102        2.7617430000        1.2013587614
 H         -4.9246849001        2.5082188097        1.5695515517
 H         -7.1263194004        0.0977861904       -0.8925697287
 H         -8.2677755902        0.7409690698        0.2891500918
 H         -6.7743196797       -0.6529430305        1.4766588909
 H         -6.3574050798        1.0136222394        1.9126885515
 O         -4.7582877099       -1.3458612899        0.4609172102
 C         -3.5266338999       -1.8445806296        0.0697227397
 O         -3.5138351698       -3.0744496595       -0.1426489908
 H          1.3900375997       -0.3556922787       -0.7050218909
 C          1.1488706800       -0.6459758891        0.3033677291
 C         -0.0676434599       -1.2393109793        0.5978915391
 C         -0.3327948995       -1.5991075499        1.9173089391
 C          0.5942976107       -1.3632143302        2.9132334689
 C          1.8097010706       -0.7722646499        2.6147020089
 C          2.0830893402       -0.4065269994        1.3023915890
 N          3.2934774200        0.2269257609        0.9782282189
 S          3.9988805997       -0.0550097584       -0.5272082814
 O          3.3468033994        0.7623003119       -1.5187010209
 O          4.0433430698       -1.4748756883       -0.7977101419
 C          5.6409651297        0.5713200917       -0.2236390315
 C          5.8324478996        1.9403469717       -0.2322155510
 C          7.0973134296        2.4414613118        0.0303281689
 C          8.1440137397        1.5705107818        0.2954443283
 C          7.9370820599        0.1993872118        0.2986536178
 C          6.6738321099       -0.3086379083        0.0381452779
 H          6.4673427000       -1.3667108983        0.0229454976
 H          8.7534880300       -0.4746618482        0.5022088174
 H          9.1277429197        1.9633808318        0.4984060882
 H          7.2624537194        3.5068249918        0.0264944993
 H          4.9908626494        2.5767455517       -0.4516378806
 H          3.9738301902        0.1799467107        1.7242403987
 H          2.5348739307       -0.5873156801        3.3926123888
 H          0.3728435410       -1.6470978406        3.9312486989
 H         -1.2814196894       -2.0655449801        2.1486267491
 C         -1.1093302101       -1.5276559791       -0.4559127507
 H         -1.2415755999       -2.6186924991       -0.5111726211
 C         -0.7340174905       -1.0151492985       -1.8303978006
 C          0.1865919094       -1.8116953880       -2.7036474511
 C         -1.2694033006       -1.7109751981       -3.0438805008
 H         -1.5604432509       -1.1136665978       -3.8948947105
 H         -1.8935596205       -2.5781032982       -2.8827746910
 H          0.9024562492       -1.2818815877       -3.3147167311
 H          0.5568780396       -2.7486299481       -2.3147836316
 H         -0.6579877806        0.0661977515       -1.8667166502
 O         -1.6243164203        1.2380868806        0.1865872905
